   36
jmolscript: load "" {1 1 1} spacegroup "x,y,z" unitcell [{      9.470200     0.000000     0.000000 }, {     -0.721600     9.442668     0.000000 }, {     -0.721600    -0.778849     9.410493 }]
Si      0.135660     2.474187     8.233157    27.057923
Si      7.984839     0.734243     3.132076    27.071796
Si      2.466669     8.190369     0.980498    27.037711
Si      5.585492     8.350230     1.157688    27.117608
Si      7.911801     0.658652     6.254125    27.181687
Si      0.060301     5.595385     8.406040    26.980393
Si      7.913334     6.190869     1.158089    26.964324
Si      0.062043     7.932626     6.255724    27.148762
Si      5.586137     0.477127     8.408285    27.249436
Si      2.466112     0.318234     8.233576    27.020264
Si      0.136520     8.009010     3.131926    27.072293
Si      7.985329     3.073479     0.982228    27.104722
O       1.594792     1.713679     8.420162    35.107703
O       0.010530     0.001298     3.031212    39.856733
O       8.112861     2.204376     2.384522    35.166517
O       3.026558     0.237796     0.246139    39.855779
O       1.593287     8.254155     2.385783    35.161546
O       0.012367     3.030308     0.246466    39.837539
O       6.455064     6.953421     0.978704    35.120504
O       8.036137     8.666078     6.362982    39.830515
O       6.455908     0.412457     7.001623    35.111727
O       8.033225     5.635717     9.144335    39.850072
O      -0.072824     6.462418     7.002957    35.161270
O       5.032485     8.433657     9.149217    39.831779
O       1.998300     6.936212    -0.013989    38.970198
O      -0.706791     1.938775     6.898925    38.912324
O       6.773237    -0.216217     2.495616    38.869764
O       6.771139     2.513720    -0.013582    38.877925
O      -0.710292     6.726024     2.490851    38.920300
O       1.993546    -0.558915     6.897133    38.942489
O       0.503159     7.593108     4.694095    34.147781
O       4.026246     0.798911     7.951230    34.189226
O       7.541367     4.601426     1.448982    34.115446
O       7.538931     1.074516     4.693053    34.118489
O       4.026118     7.864863     1.440135    34.173018
O       0.498577     4.065149     7.945967    34.177313
  
Same information as above printed with atom number.
   1 Si     0.135660     2.474187     8.233157    27.057923
   2 Si     7.984839     0.734243     3.132076    27.071796
   3 Si     2.466669     8.190369     0.980498    27.037711
   4 Si     5.585492     8.350230     1.157688    27.117608
   5 Si     7.911801     0.658652     6.254125    27.181687
   6 Si     0.060301     5.595385     8.406040    26.980393
   7 Si     7.913334     6.190869     1.158089    26.964324
   8 Si     0.062043     7.932626     6.255724    27.148762
   9 Si     5.586137     0.477127     8.408285    27.249436
  10 Si     2.466112     0.318234     8.233576    27.020264
  11 Si     0.136520     8.009010     3.131926    27.072293
  12 Si     7.985329     3.073479     0.982228    27.104722
  13 O      1.594792     1.713679     8.420162    35.107703
  14 O      0.010530     0.001298     3.031212    39.856733
  15 O      8.112861     2.204376     2.384522    35.166517
  16 O      3.026558     0.237796     0.246139    39.855779
  17 O      1.593287     8.254155     2.385783    35.161546
  18 O      0.012367     3.030308     0.246466    39.837539
  19 O      6.455064     6.953421     0.978704    35.120504
  20 O      8.036137     8.666078     6.362982    39.830515
  21 O      6.455908     0.412457     7.001623    35.111727
  22 O      8.033225     5.635717     9.144335    39.850072
  23 O     -0.072824     6.462418     7.002957    35.161270
  24 O      5.032485     8.433657     9.149217    39.831779
  25 O      1.998300     6.936212    -0.013989    38.970198
  26 O     -0.706791     1.938775     6.898925    38.912324
  27 O      6.773237    -0.216217     2.495616    38.869764
  28 O      6.771139     2.513720    -0.013582    38.877925
  29 O     -0.710292     6.726024     2.490851    38.920300
  30 O      1.993546    -0.558915     6.897133    38.942489
  31 O      0.503159     7.593108     4.694095    34.147781
  32 O      4.026246     0.798911     7.951230    34.189226
  33 O      7.541367     4.601426     1.448982    34.115446
  34 O      7.538931     1.074516     4.693053    34.118489
  35 O      4.026118     7.864863     1.440135    34.173018
  36 O      0.498577     4.065149     7.945967    34.177313
