   36
jmolscript: load "" {1 1 1} spacegroup "x,y,z" unitcell [{      9.470200     0.000000     0.000000 }, {     -0.721600     9.442668     0.000000 }, {     -0.721600    -0.778849     9.410493 }]
Si      0.135660     2.474187     8.233157    11.975372
Si      7.984839     0.734243     3.132076    11.997935
Si      2.466669     8.190369     0.980498    11.976808
Si      5.585492     8.350230     1.157688    11.995428
Si      7.911801     0.658652     6.254125    11.993369
Si      0.060301     5.595385     8.406040    11.944499
Si      7.913334     6.190869     1.158089    11.967606
Si      0.062043     7.932626     6.255724    11.984475
Si      5.586137     0.477127     8.408285    12.028392
Si      2.466112     0.318234     8.233576    11.956095
Si      0.136520     8.009010     3.131926    11.987830
Si      7.985329     3.073479     0.982228    11.999769
O       1.594792     1.713679     8.420162    16.095964
O       0.010530     0.001298     3.031212    17.339686
O       8.112861     2.204376     2.384522    16.106530
O       3.026558     0.237796     0.246139    17.331920
O       1.593287     8.254155     2.385783    16.108388
O       0.012367     3.030308     0.246466    17.332010
O       6.455064     6.953421     0.978704    16.094079
O       8.036137     8.666078     6.362982    17.330111
O       6.455908     0.412457     7.001623    16.095731
O       8.033225     5.635717     9.144335    17.335732
O      -0.072824     6.462418     7.002957    16.108772
O       5.032485     8.433657     9.149217    17.327772
O       1.998300     6.936212    -0.013989    17.095393
O      -0.706791     1.938775     6.898925    17.080252
O       6.773237    -0.216217     2.495616    17.076874
O       6.771139     2.513720    -0.013582    17.074139
O      -0.710292     6.726024     2.490851    17.086238
O       1.993546    -0.558915     6.897133    17.092318
O       0.503159     7.593108     4.694095    15.834259
O       4.026246     0.798911     7.951230    15.845502
O       7.541367     4.601426     1.448982    15.820421
O       7.538931     1.074516     4.693053    15.825137
O       4.026118     7.864863     1.440135    15.830869
O       0.498577     4.065149     7.945967    15.839989
  
Same information as above printed with atom number.
   1 Si     0.135660     2.474187     8.233157    11.975372
   2 Si     7.984839     0.734243     3.132076    11.997935
   3 Si     2.466669     8.190369     0.980498    11.976808
   4 Si     5.585492     8.350230     1.157688    11.995428
   5 Si     7.911801     0.658652     6.254125    11.993369
   6 Si     0.060301     5.595385     8.406040    11.944499
   7 Si     7.913334     6.190869     1.158089    11.967606
   8 Si     0.062043     7.932626     6.255724    11.984475
   9 Si     5.586137     0.477127     8.408285    12.028392
  10 Si     2.466112     0.318234     8.233576    11.956095
  11 Si     0.136520     8.009010     3.131926    11.987830
  12 Si     7.985329     3.073479     0.982228    11.999769
  13 O      1.594792     1.713679     8.420162    16.095964
  14 O      0.010530     0.001298     3.031212    17.339686
  15 O      8.112861     2.204376     2.384522    16.106530
  16 O      3.026558     0.237796     0.246139    17.331920
  17 O      1.593287     8.254155     2.385783    16.108388
  18 O      0.012367     3.030308     0.246466    17.332010
  19 O      6.455064     6.953421     0.978704    16.094079
  20 O      8.036137     8.666078     6.362982    17.330111
  21 O      6.455908     0.412457     7.001623    16.095731
  22 O      8.033225     5.635717     9.144335    17.335732
  23 O     -0.072824     6.462418     7.002957    16.108772
  24 O      5.032485     8.433657     9.149217    17.327772
  25 O      1.998300     6.936212    -0.013989    17.095393
  26 O     -0.706791     1.938775     6.898925    17.080252
  27 O      6.773237    -0.216217     2.495616    17.076874
  28 O      6.771139     2.513720    -0.013582    17.074139
  29 O     -0.710292     6.726024     2.490851    17.086238
  30 O      1.993546    -0.558915     6.897133    17.092318
  31 O      0.503159     7.593108     4.694095    15.834259
  32 O      4.026246     0.798911     7.951230    15.845502
  33 O      7.541367     4.601426     1.448982    15.820421
  34 O      7.538931     1.074516     4.693053    15.825137
  35 O      4.026118     7.864863     1.440135    15.830869
  36 O      0.498577     4.065149     7.945967    15.839989
