   36
jmolscript: load "" {1 1 1} spacegroup "x,y,z" unitcell [{      9.470200     0.000000     0.000000 }, {     -0.721600     9.442668     0.000000 }, {     -0.721600    -0.778849     9.410493 }]
Si      0.135660     2.474187     8.233157    78.850565
Si      7.984839     0.734243     3.132076    78.878227
Si      2.466669     8.190369     0.980498    78.697496
Si      5.585492     8.350230     1.157688    79.126700
Si      7.911801     0.658652     6.254125    79.436329
Si      0.060301     5.595385     8.406040    78.552587
Si      7.913334     6.190869     1.158089    78.298526
Si      0.062043     7.932626     6.255724    79.377999
Si      5.586137     0.477127     8.408285    79.745081
Si      2.466112     0.318234     8.233576    78.718644
Si      0.136520     8.009010     3.131926    78.888256
Si      7.985329     3.073479     0.982228    78.991635
O       1.594792     1.713679     8.420162    96.243751
O       0.010530     0.001298     3.031212   116.013298
O       8.112861     2.204376     2.384522    96.482163
O       3.026558     0.237796     0.246139   116.058828
O       1.593287     8.254155     2.385783    96.484080
O       0.012367     3.030308     0.246466   115.958577
O       6.455064     6.953421     0.978704    96.313977
O       8.036137     8.666078     6.362982   115.947615
O       6.455908     0.412457     7.001623    96.289546
O       8.033225     5.635717     9.144335   116.001207
O      -0.072824     6.462418     7.002957    96.467715
O       5.032485     8.433657     9.149217   115.938899
O       1.998300     6.936212    -0.013989   112.346053
O      -0.706791     1.938775     6.898925   112.094914
O       6.773237    -0.216217     2.495616   111.929789
O       6.771139     2.513720    -0.013582   111.969504
O      -0.710292     6.726024     2.490851   112.137353
O       1.993546    -0.558915     6.897133   112.180117
O       0.503159     7.593108     4.694095    92.431650
O       4.026246     0.798911     7.951230    92.612659
O       7.541367     4.601426     1.448982    92.337373
O       7.538931     1.074516     4.693053    92.325086
O       4.026118     7.864863     1.440135    92.570228
O       0.498577     4.065149     7.945967    92.567613
  
Same information as above printed with atom number.
   1 Si     0.135660     2.474187     8.233157    78.850565
   2 Si     7.984839     0.734243     3.132076    78.878227
   3 Si     2.466669     8.190369     0.980498    78.697496
   4 Si     5.585492     8.350230     1.157688    79.126700
   5 Si     7.911801     0.658652     6.254125    79.436329
   6 Si     0.060301     5.595385     8.406040    78.552587
   7 Si     7.913334     6.190869     1.158089    78.298526
   8 Si     0.062043     7.932626     6.255724    79.377999
   9 Si     5.586137     0.477127     8.408285    79.745081
  10 Si     2.466112     0.318234     8.233576    78.718644
  11 Si     0.136520     8.009010     3.131926    78.888256
  12 Si     7.985329     3.073479     0.982228    78.991635
  13 O      1.594792     1.713679     8.420162    96.243751
  14 O      0.010530     0.001298     3.031212   116.013298
  15 O      8.112861     2.204376     2.384522    96.482163
  16 O      3.026558     0.237796     0.246139   116.058828
  17 O      1.593287     8.254155     2.385783    96.484080
  18 O      0.012367     3.030308     0.246466   115.958577
  19 O      6.455064     6.953421     0.978704    96.313977
  20 O      8.036137     8.666078     6.362982   115.947615
  21 O      6.455908     0.412457     7.001623    96.289546
  22 O      8.033225     5.635717     9.144335   116.001207
  23 O     -0.072824     6.462418     7.002957    96.467715
  24 O      5.032485     8.433657     9.149217   115.938899
  25 O      1.998300     6.936212    -0.013989   112.346053
  26 O     -0.706791     1.938775     6.898925   112.094914
  27 O      6.773237    -0.216217     2.495616   111.929789
  28 O      6.771139     2.513720    -0.013582   111.969504
  29 O     -0.710292     6.726024     2.490851   112.137353
  30 O      1.993546    -0.558915     6.897133   112.180117
  31 O      0.503159     7.593108     4.694095    92.431650
  32 O      4.026246     0.798911     7.951230    92.612659
  33 O      7.541367     4.601426     1.448982    92.337373
  34 O      7.538931     1.074516     4.693053    92.325086
  35 O      4.026118     7.864863     1.440135    92.570228
  36 O      0.498577     4.065149     7.945967    92.567613
