   56
jmolscript: load "" {1 1 1} spacegroup "x,y,z" unitcell [{      8.100270    -0.010842    -0.036431 }, {     -0.010854     8.104335     0.009788 }, {     -0.036446     0.009777     8.104974 }]
Li     1.006621     1.012909     1.009791     0.987342
Li     7.039053     7.090352     7.066230     0.987169
Li     5.028518     1.010333     5.052761     0.986405
Li     3.012950     7.090721     3.044365     0.988016
Li     0.978330     5.073034     5.073397     0.986915
Li     7.062850     3.033271     3.008638     0.986754
Li     5.041404     5.057669     1.004933     0.987599
Li     3.000113     3.043418     7.091999     0.986805
Mn     4.035883     4.050299     4.057252     1.547160
Mn     2.019158     6.077532    -0.001256     1.595855
Mn     6.083586     2.034001    -0.031374     1.584718
Mn     6.057991     0.004943     2.008363     1.515173
Mn     1.990638    -0.007383     6.073125     1.574590
Mn    -0.030340     2.025332     6.063817     1.467868
Mn    -0.017341     6.072570     2.016166     1.595995
Mn     4.059993    -0.007114     0.000209     1.563738
Mn     2.005966     2.030950     4.045789     1.546622
Mn     6.059636     6.090846     4.026048     1.607409
Mn     6.034339     4.061919     6.066238     1.519295
Mn     2.003351     4.039945     2.025865     1.598916
Mn    -0.016316     4.049990    -0.011982     1.556349
Mn     4.042396     2.012159     2.009366     1.574112
Mn     4.019021     6.069134     6.066834     1.563467
Mn    -0.028932     0.002978     4.035286     1.596413
O      2.124973     2.105702     2.117196    -1.024536
O      5.930962     5.987272     5.955112    -1.029602
O      3.912905     8.000670     6.181373    -1.027108
O      4.129937     0.088819     1.916146    -1.025193
O      7.968090     6.176166     3.936052    -1.052335
O      0.087479     1.934492     4.129470    -1.018723
O      6.130059     3.974717     7.989207    -1.024713
O      1.910157     4.131989     0.101740    -1.031098
O      0.105763     4.108846     1.921474    -1.045913
O      7.952204     3.984242     6.152673    -1.004188
O      4.152867     1.919331     0.085002    -1.032844
O      3.909257     6.176860     7.993457    -1.033351
O      1.897458     0.084880     4.149300    -1.024593
O      6.143188     8.022004     3.941515    -1.034231
O      2.101733     6.163091     6.175045    -1.029608
O      5.954402     1.930225     1.897740    -1.023404
O      3.936555     3.943646     2.123920    -1.029182
O      4.106386     4.145810     5.973259    -1.020279
O      7.955564     2.128335     7.983190    -1.015794
O      0.100624     5.981544     0.081802    -1.045890
O      0.092943     0.061478     5.969140    -1.019598
O      7.965430     8.031869     2.104884    -1.040413
O      4.129224     5.976671     4.142489    -1.033434
O      3.932380     2.120258     3.936128    -1.028845
O      6.147488     2.130433     6.149481    -1.018349
O      1.927244     5.982989     1.910366    -1.049766
O      2.099892     3.970046     3.936005    -1.017932
O      5.957442     4.156926     4.137659    -1.019109
O      5.981198     0.099780     0.080148    -1.017022
O      2.076935     8.026573     7.992409    -1.028669
O      6.160324     6.177890     2.102002    -1.043533
O      1.914611     1.935653     5.957756    -1.015429
 
 Chargemol version 3.5 September 26, 2017.
See ddec.sourceforge.net for latest version.
 
Computational parameters:
Reference_weighting =      0.214286
Number of radial integration shells =    100
Cutoff radius (pm) =    500
Error in the integrated total number of electrons before renormalization (e) =    2.2579E-06
Charge convergence tolerance =    1.0000E-05
Minimum radius for electron cloud penetration fitting (pm) =    200
Minimum decay exponent for electron density of buried atom tails =   1.7500
Number of iterations to convergence =    141
 
The following XYZ coordinates are in angstroms. The atomic dipoles and quadrupoles are in atomic units.
atom number, atomic symbol, x, y, z, net_charge, dipole_x, dipole_y, dipole_z, dipole_mag, Qxy, Qxz, Qyz,Q(x^2-y^2), Q(3z^2 - R^2), three eigenvalues of traceless quadrupole moment tensor
    1 Li     1.006621     1.012909     1.009791     0.987342    -0.000776    -0.000098    -0.000119     0.000791     0.000031    -0.000024    -0.000041    -0.000022    -0.000183    -0.000078    -0.000002     0.000080
    2 Li     7.039053     7.090352     7.066230     0.987169     0.000861    -0.000175     0.000296     0.000927    -0.000127    -0.000043    -0.000315    -0.000228     0.000086    -0.000324    -0.000066     0.000390
    3 Li     5.028518     1.010333     5.052761     0.986405    -0.000017    -0.000120    -0.000636     0.000647    -0.000208     0.000144     0.000246     0.000066    -0.000180    -0.000409     0.000150     0.000259
    4 Li     3.012950     7.090721     3.044365     0.988016     0.000682     0.000332    -0.000358     0.000839     0.000482     0.000149     0.000020    -0.000184     0.000120    -0.000530     0.000032     0.000498
    5 Li     0.978330     5.073034     5.073397     0.986915    -0.000663     0.000090    -0.000061     0.000672    -0.000134     0.000015    -0.000020     0.000133    -0.000524    -0.000177    -0.000062     0.000238
    6 Li     7.062850     3.033271     3.008638     0.986754     0.000936    -0.000007     0.000133     0.000945    -0.000058    -0.000127    -0.000348    -0.000169     0.000128    -0.000363    -0.000043     0.000406
    7 Li     5.041404     5.057669     1.004933     0.987599     0.000135    -0.000011    -0.000619     0.000634    -0.000211     0.000126     0.000349    -0.000099     0.000095    -0.000461     0.000069     0.000392
    8 Li     3.000113     3.043418     7.091999     0.986805     0.000637     0.000413    -0.000249     0.000799     0.000373     0.000104    -0.000002    -0.000123    -0.000010    -0.000393     0.000002     0.000391
    9 Mn     4.035883     4.050299     4.057252     1.547160    -0.001765    -0.000031    -0.003795     0.004185    -0.012220    -0.004120    -0.011755    -0.000543     0.029515    -0.021289     0.004543     0.016746
   10 Mn     2.019158     6.077532    -0.001256     1.595855    -0.000455    -0.002808     0.000462     0.002881    -0.018924     0.025961     0.014818    -0.030391    -0.013111    -0.044354     0.017548     0.026806
   11 Mn     6.083586     2.034001    -0.031374     1.584718    -0.002845    -0.004932     0.005270     0.007758    -0.014143     0.011842     0.014742     0.000158     0.010139    -0.027369     0.011598     0.015771
   12 Mn     6.057991     0.004943     2.008363     1.515173     0.004355    -0.000755    -0.001941     0.004828     0.008958     0.002989     0.017583     0.001410     0.025100    -0.019286    -0.003487     0.022773
   13 Mn     1.990638    -0.007383     6.073125     1.574590    -0.000212    -0.002384    -0.001896     0.003053     0.004439    -0.022581     0.006103    -0.009781    -0.016453    -0.028033     0.009126     0.018907
   14 Mn    -0.030340     2.025332     6.063817     1.467868    -0.002610     0.001938     0.000333     0.003268     0.002383     0.001605    -0.009530     0.022938    -0.005485    -0.016954     0.004289     0.012665
   15 Mn    -0.017341     6.072570     2.016166     1.595995    -0.001785     0.002782     0.001620     0.003681     0.026806     0.028198    -0.026805     0.022661    -0.012493    -0.055512     0.019853     0.035659
   16 Mn     4.059993    -0.007114     0.000209     1.563738    -0.001820    -0.001219    -0.004231     0.004764    -0.017767    -0.015272    -0.000454    -0.022951    -0.010513    -0.027469     0.002594     0.024874
   17 Mn     2.005966     2.030950     4.045789     1.546622    -0.000269    -0.003142    -0.000137     0.003156    -0.012611     0.006469     0.006835    -0.009815     0.039992    -0.022563     0.006472     0.016091
   18 Mn     6.059636     6.090846     4.026048     1.607409    -0.002789    -0.005073     0.003597     0.006816    -0.017983     0.016836     0.021441    -0.015438    -0.038618    -0.039433     0.010540     0.028892
   19 Mn     6.034339     4.061919     6.066238     1.519295     0.003384     0.000940    -0.001648     0.003880     0.006576     0.000927     0.015441    -0.001461    -0.012529    -0.017163    -0.000091     0.017254
   20 Mn     2.003351     4.039945     2.025865     1.598916    -0.000347     0.001635    -0.001738     0.002411     0.003765    -0.028887     0.014963    -0.008140     0.022461    -0.034444     0.001687     0.032758
   21 Mn    -0.016316     4.049990    -0.011982     1.556349     0.004528     0.001809     0.002883     0.005664    -0.011854    -0.005291    -0.012246    -0.011880     0.011755    -0.020511     0.003201     0.017309
   22 Mn     4.042396     2.012159     2.009366     1.574112     0.000153     0.002223     0.004127     0.004690    -0.005893     0.020923    -0.008172    -0.015120    -0.030541    -0.027766     0.004085     0.023680
   23 Mn     4.019021     6.069134     6.066834     1.563467    -0.000542     0.002203     0.002933     0.003708     0.012129     0.013398    -0.011147    -0.028463    -0.042530    -0.029701     0.002913     0.026788
   24 Mn    -0.028932     0.002978     4.035286     1.596413     0.004190    -0.000591     0.001617     0.004530    -0.015821    -0.005296    -0.030000     0.014883    -0.036299    -0.041011     0.011442     0.029569
   25 O      2.124973     2.105702     2.117196    -1.024536    -0.043739    -0.048707    -0.042020     0.077789    -0.029869    -0.030849    -0.033582    -0.004963    -0.001412    -0.062897     0.028143     0.034754
   26 O      5.930962     5.987272     5.955112    -1.029602     0.047852     0.040907     0.044949     0.077353    -0.033551    -0.024750    -0.031761    -0.005696    -0.009330    -0.060045     0.022388     0.037657
   27 O      3.912905     8.000670     6.181373    -1.027108     0.043710     0.041546    -0.041130     0.072995    -0.031603     0.031941     0.030429    -0.005588    -0.006108    -0.062753     0.029833     0.032920
   28 O      4.129937     0.088819     1.916146    -1.025193    -0.045552    -0.048474     0.050132     0.083294    -0.031309     0.032170     0.030434    -0.002341    -0.008422    -0.062680     0.029909     0.032771
   29 O      7.968090     6.176166     3.936052    -1.052335     0.053580    -0.047972     0.052202     0.088866     0.034716    -0.025663     0.032589    -0.003469    -0.010627    -0.061999     0.023560     0.038439
   30 O      0.087479     1.934492     4.129470    -1.018723    -0.042753     0.046672    -0.046303     0.078422     0.029470    -0.031738     0.033999     0.000630     0.017827    -0.063553     0.026388     0.037165
   31 O      6.130059     3.974717     7.989207    -1.024713    -0.048658     0.054342     0.045871     0.086167     0.030178     0.029058    -0.032776    -0.001829    -0.002349    -0.061357     0.028010     0.033347
   32 O      1.910157     4.131989     0.101740    -1.031098     0.038831    -0.048047    -0.046623     0.077396     0.032369     0.030677    -0.031851    -0.005717     0.001316    -0.063309     0.029283     0.034026
   33 O      0.105763     4.108846     1.921474    -1.045913    -0.048579    -0.059569     0.041454     0.087332    -0.028531     0.033568     0.032129    -0.006625     0.010597    -0.062942     0.026764     0.036178
   34 O      7.952204     3.984242     6.152673    -1.004188     0.036758     0.042918    -0.047509     0.073826    -0.030153     0.033405     0.032924    -0.011675    -0.012641    -0.064761     0.029067     0.035693
   35 O      4.152867     1.919331     0.085002    -1.032844    -0.043545     0.044077    -0.045685     0.076981     0.031312    -0.028150     0.031352    -0.000565     0.006422    -0.060610     0.028266     0.032344
   36 O      3.909257     6.176860     7.993457    -1.033351     0.048241    -0.043077     0.039129     0.075591     0.032001    -0.029536     0.029433    -0.003762    -0.011354    -0.060698     0.026627     0.034071
   37 O      1.897458     0.084880     4.149300    -1.024593     0.043861    -0.044605    -0.044273     0.076639     0.032991     0.028976    -0.033545    -0.003763    -0.006745    -0.063683     0.027480     0.036203
   38 O      6.143188     8.022004     3.941515    -1.034231    -0.051819     0.054329     0.043902     0.086973     0.031357     0.029594    -0.034533    -0.001471     0.001633    -0.063677     0.028481     0.035197
   39 O      2.101733     6.163091     6.175045    -1.029608    -0.041927    -0.044951    -0.047830     0.077886    -0.032058    -0.028965    -0.033105    -0.009715    -0.009273    -0.062833     0.025724     0.037109
   40 O      5.954402     1.930225     1.897740    -1.023404     0.048781     0.040557     0.042747     0.076496    -0.031751    -0.028553    -0.030941    -0.002466    -0.002911    -0.060831     0.027643     0.033188
   41 O      3.936555     3.943646     2.123920    -1.029182     0.046781     0.043001    -0.038109     0.074094    -0.031002     0.031714     0.032013    -0.005042    -0.002920    -0.063205     0.029951     0.033254
   42 O      4.106386     4.145810     5.973259    -1.020279    -0.046253    -0.046385     0.046760     0.080482    -0.032181     0.032317     0.030649    -0.000882    -0.008296    -0.063470     0.029770     0.033700
   43 O      7.955564     2.128335     7.983190    -1.015794     0.050157    -0.044358     0.043790     0.080006     0.032883    -0.026963     0.030209    -0.003083     0.015694    -0.060401     0.027436     0.032964
   44 O      0.100624     5.981544     0.081802    -1.045890    -0.047887     0.041916    -0.057996     0.086102     0.031828    -0.029587     0.033728    -0.009514    -0.002156    -0.063480     0.026570     0.036910
   45 O      0.092943     0.061478     5.969140    -1.019598    -0.044393    -0.049987     0.045240     0.080722    -0.031890     0.030564     0.033009    -0.017110    -0.014581    -0.064103     0.025000     0.039103
   46 O      7.965430     8.031869     2.104884    -1.040413     0.037421     0.052887    -0.053615     0.084095    -0.029326     0.035491     0.031558     0.004133    -0.006253    -0.064372     0.028273     0.036098
   47 O      4.129224     5.976671     4.142489    -1.033434    -0.046218     0.042534    -0.044281     0.076851     0.031978    -0.025959     0.033365    -0.000804     0.005631    -0.061005     0.025886     0.035119
   48 O      3.932380     2.120258     3.936128    -1.028845     0.043123    -0.042542     0.041827     0.073613     0.031040    -0.029377     0.029255     0.000532     0.000988    -0.059794     0.028894     0.030900
   49 O      6.147488     2.130433     6.149481    -1.018349    -0.038538    -0.039122    -0.051439     0.075244    -0.027705    -0.028710    -0.033368     0.005182     0.001686    -0.060056     0.027354     0.032702
   50 O      1.927244     5.982989     1.910366    -1.049766     0.054239     0.044972     0.051085     0.087029    -0.032575    -0.029288    -0.032656    -0.005276    -0.009770    -0.063044     0.027126     0.035918
   51 O      2.099892     3.970046     3.936005    -1.017932    -0.041746     0.048158     0.048789     0.080265     0.033062     0.030522    -0.032306    -0.006916    -0.003860    -0.063972     0.028481     0.035491
   52 O      5.957442     4.156926     4.137659    -1.019109     0.050060    -0.045955    -0.038842     0.078273     0.028860     0.036510    -0.030928     0.000495    -0.002790    -0.064337     0.027844     0.036493
   53 O      5.981198     0.099780     0.080148    -1.017022     0.052184    -0.044340    -0.038872     0.078742     0.030513     0.036257    -0.029704     0.000780    -0.000989    -0.064397     0.027966     0.036431
   54 O      2.076935     8.026573     7.992409    -1.028669    -0.043750     0.053058     0.044466     0.081893     0.032653     0.032138    -0.030161    -0.006995    -0.012217    -0.063488     0.028517     0.034972
   55 O      6.160324     6.177890     2.102002    -1.043533    -0.051225    -0.038745    -0.053198     0.083398    -0.028038    -0.028144    -0.035470    -0.000460    -0.002490    -0.061256     0.025862     0.035394
   56 O      1.914611     1.935653     5.957756    -1.015429     0.043185     0.044188     0.045267     0.076594    -0.031887    -0.029388    -0.030509     0.006607    -0.011177    -0.061326     0.027211     0.034115
 
The sperically averaged electron density of each atom fit to a function of the form exp(a - br) for r >=rmin_cloud_penetration
atom number,atomic symbol, x, y, z, a, b, Rsquared where a and b are in atomic units and Rsquared is the squared correlation coefficient
    1 Li     1.006621     1.012909     1.009791    -5.448093     1.748703     0.999933
    2 Li     7.039053     7.090352     7.066230    -5.435909     1.748593     0.999933
    3 Li     5.028518     1.010333     5.052761    -5.368093     1.748912     0.999930
    4 Li     3.012950     7.090721     3.044365    -5.478062     1.748831     0.999934
    5 Li     0.978330     5.073034     5.073397    -5.417712     1.748537     0.999933
    6 Li     7.062850     3.033271     3.008638    -5.408255     1.748663     0.999932
    7 Li     5.041404     5.057669     1.004933    -5.448441     1.748840     0.999933
    8 Li     3.000113     3.043418     7.091999    -5.392544     1.748952     0.999930
    9 Mn     4.035883     4.050299     4.057252    -0.804796     1.750093     0.999999
   10 Mn     2.019158     6.077532    -0.001256    -0.868130     1.750198     0.999999
   11 Mn     6.083586     2.034001    -0.031374    -0.856096     1.749989     0.999999
   12 Mn     6.057991     0.004943     2.008363    -0.749751     1.750222     0.999999
   13 Mn     1.990638    -0.007383     6.073125    -0.839692     1.750121     0.999999
   14 Mn    -0.030340     2.025332     6.063817    -0.684549     1.750124     0.999999
   15 Mn    -0.017341     6.072570     2.016166    -0.868746     1.750069     0.999999
   16 Mn     4.059993    -0.007114     0.000209    -0.828429     1.750120     0.999999
   17 Mn     2.005966     2.030950     4.045789    -0.798562     1.750221     0.999999
   18 Mn     6.059636     6.090846     4.026048    -0.890394     1.750078     0.999999
   19 Mn     6.034339     4.061919     6.066238    -0.758096     1.750019     0.999999
   20 Mn     2.003351     4.039945     2.025865    -0.873982     1.750128     0.999999
   21 Mn    -0.016316     4.049990    -0.011982    -0.811047     1.750261     0.999999
   22 Mn     4.042396     2.012159     2.009366    -0.840351     1.750099     0.999999
   23 Mn     4.019021     6.069134     6.066834    -0.824667     1.750088     0.999999
   24 Mn    -0.028932     0.002978     4.035286    -0.871682     1.750138     0.999999
   25 O      2.124973     2.105702     2.117196    -0.633462     1.750556     0.999997
   26 O      5.930962     5.987272     5.955112    -0.637078     1.750392     0.999996
   27 O      3.912905     8.000670     6.181373    -0.622644     1.750725     0.999997
   28 O      4.129937     0.088819     1.916146    -0.636621     1.750459     0.999997
   29 O      7.968090     6.176166     3.936052    -0.600536     1.750738     0.999997
   30 O      0.087479     1.934492     4.129470    -0.633901     1.750450     0.999996
   31 O      6.130059     3.974717     7.989207    -0.634449     1.750531     0.999997
   32 O      1.910157     4.131989     0.101740    -0.617182     1.750865     0.999997
   33 O      0.105763     4.108846     1.921474    -0.611464     1.750714     0.999997
   34 O      7.952204     3.984242     6.152673    -0.659010     1.750332     0.999996
   35 O      4.152867     1.919331     0.085002    -0.618298     1.750612     0.999997
   36 O      3.909257     6.176860     7.993457    -0.633962     1.750511     0.999997
   37 O      1.897458     0.084880     4.149300    -0.630310     1.750669     0.999996
   38 O      6.143188     8.022004     3.941515    -0.609515     1.750808     0.999998
   39 O      2.101733     6.163091     6.175045    -0.634933     1.750464     0.999997
   40 O      5.954402     1.930225     1.897740    -0.640744     1.750462     0.999997
   41 O      3.936555     3.943646     2.123920    -0.622158     1.750658     0.999997
   42 O      4.106386     4.145810     5.973259    -0.637849     1.750524     0.999997
   43 O      7.955564     2.128335     7.983190    -0.635881     1.750472     0.999997
   44 O      0.100624     5.981544     0.081802    -0.607623     1.750561     0.999997
   45 O      0.092943     0.061478     5.969140    -0.641284     1.750484     0.999996
   46 O      7.965430     8.031869     2.104884    -0.621620     1.750567     0.999996
   47 O      4.129224     5.976671     4.142489    -0.627064     1.750365     0.999996
   48 O      3.932380     2.120258     3.936128    -0.639459     1.750478     0.999997
   49 O      6.147488     2.130433     6.149481    -0.637602     1.750596     0.999997
   50 O      1.927244     5.982989     1.910366    -0.603850     1.750717     0.999997
   51 O      2.099892     3.970046     3.936005    -0.638279     1.750514     0.999997
   52 O      5.957442     4.156926     4.137659    -0.644620     1.750604     0.999997
   53 O      5.981198     0.099780     0.080148    -0.649390     1.750519     0.999996
   54 O      2.076935     8.026573     7.992409    -0.622951     1.750632     0.999997
   55 O      6.160324     6.177890     2.102002    -0.616775     1.750597     0.999997
   56 O      1.914611     1.935653     5.957756    -0.635082     1.750581     0.999997
 
 2017/10/01  14:45:43
