   56
jmolscript: load "" {1 1 1} spacegroup "x,y,z" unitcell [{      8.100270    -0.010842    -0.036431 }, {     -0.010854     8.104335     0.009788 }, {     -0.036446     0.009777     8.104974 }]
Li      1.006621     1.012909     1.009791     0.988136
Li      7.039053     7.090352     7.066230     0.989181
Li      5.028518     1.010333     5.052761     0.993717
Li      3.012950     7.090721     3.044365     0.985600
Li      0.978330     5.073034     5.073397     0.990301
Li      7.062850     3.033271     3.008638     0.991251
Li      5.041404     5.057669     1.004933     0.987779
Li      3.000113     3.043418     7.091999     0.991695
Mn      4.035883     4.050299     4.057252    21.436908
Mn      2.019158     6.077532    -0.001256    21.098222
Mn      6.083586     2.034001    -0.031374    21.177701
Mn      6.057991     0.004943     2.008363    21.726296
Mn      1.990638    -0.007383     6.073125    21.267662
Mn     -0.030340     2.025332     6.063817    22.103194
Mn     -0.017341     6.072570     2.016166    21.040434
Mn      4.059993    -0.007114     0.000209    21.323054
Mn      2.005966     2.030950     4.045789    21.487668
Mn      6.059636     6.090846     4.026048    20.990806
Mn      6.034339     4.061919     6.066238    21.698582
Mn      2.003351     4.039945     2.025865    21.090657
Mn     -0.016316     4.049990    -0.011982    21.393320
Mn      4.042396     2.012159     2.009366    21.259481
Mn      4.019021     6.069134     6.066834    21.334926
Mn     -0.028932     0.002978     4.035286    21.084165
O       2.124973     2.105702     2.117196    16.672563
O       5.930962     5.987272     5.955112    16.703078
O       3.912905     8.000670     6.181373    16.714819
O       4.129937     0.088819     1.916146    16.686438
O       7.968090     6.176166     3.936052    16.864234
O       0.087479     1.934492     4.129470    16.661179
O       6.130059     3.974717     7.989207    16.689966
O       1.910157     4.131989     0.101740    16.738844
O       0.105763     4.108846     1.921474    16.823538
O       7.952204     3.984242     6.152673    16.553459
O       4.152867     1.919331     0.085002    16.751194
O       3.909257     6.176860     7.993457    16.732431
O       1.897458     0.084880     4.149300    16.688956
O       6.143188     8.022004     3.941515    16.761680
O       2.101733     6.163091     6.175045    16.695422
O       5.954402     1.930225     1.897740    16.661339
O       3.936555     3.943646     2.123920    16.725654
O       4.106386     4.145810     5.973259    16.649597
O       7.955564     2.128335     7.983190    16.640136
O       0.100624     5.981544     0.081802    16.826003
O       0.092943     0.061478     5.969140    16.660924
O       7.965430     8.031869     2.104884    16.779714
O       4.129224     5.976671     4.142489    16.743775
O       3.932380     2.120258     3.936128    16.707884
O       6.147488     2.130433     6.149481    16.657656
O       1.927244     5.982989     1.910366    16.861717
O       2.099892     3.970046     3.936005    16.648492
O       5.957442     4.156926     4.137659    16.634779
O       5.981198     0.099780     0.080148    16.622481
O       2.076935     8.026573     7.992409    16.724915
O       6.160324     6.177890     2.102002    16.815338
O       1.914611     1.935653     5.957756    16.652515
  
Same information as above printed with atom number.
   1 Li     1.006621     1.012909     1.009791     0.988136
   2 Li     7.039053     7.090352     7.066230     0.989181
   3 Li     5.028518     1.010333     5.052761     0.993717
   4 Li     3.012950     7.090721     3.044365     0.985600
   5 Li     0.978330     5.073034     5.073397     0.990301
   6 Li     7.062850     3.033271     3.008638     0.991251
   7 Li     5.041404     5.057669     1.004933     0.987779
   8 Li     3.000113     3.043418     7.091999     0.991695
   9 Mn     4.035883     4.050299     4.057252    21.436908
  10 Mn     2.019158     6.077532    -0.001256    21.098222
  11 Mn     6.083586     2.034001    -0.031374    21.177701
  12 Mn     6.057991     0.004943     2.008363    21.726296
  13 Mn     1.990638    -0.007383     6.073125    21.267662
  14 Mn    -0.030340     2.025332     6.063817    22.103194
  15 Mn    -0.017341     6.072570     2.016166    21.040434
  16 Mn     4.059993    -0.007114     0.000209    21.323054
  17 Mn     2.005966     2.030950     4.045789    21.487668
  18 Mn     6.059636     6.090846     4.026048    20.990806
  19 Mn     6.034339     4.061919     6.066238    21.698582
  20 Mn     2.003351     4.039945     2.025865    21.090657
  21 Mn    -0.016316     4.049990    -0.011982    21.393320
  22 Mn     4.042396     2.012159     2.009366    21.259481
  23 Mn     4.019021     6.069134     6.066834    21.334926
  24 Mn    -0.028932     0.002978     4.035286    21.084165
  25 O      2.124973     2.105702     2.117196    16.672563
  26 O      5.930962     5.987272     5.955112    16.703078
  27 O      3.912905     8.000670     6.181373    16.714819
  28 O      4.129937     0.088819     1.916146    16.686438
  29 O      7.968090     6.176166     3.936052    16.864234
  30 O      0.087479     1.934492     4.129470    16.661179
  31 O      6.130059     3.974717     7.989207    16.689966
  32 O      1.910157     4.131989     0.101740    16.738844
  33 O      0.105763     4.108846     1.921474    16.823538
  34 O      7.952204     3.984242     6.152673    16.553459
  35 O      4.152867     1.919331     0.085002    16.751194
  36 O      3.909257     6.176860     7.993457    16.732431
  37 O      1.897458     0.084880     4.149300    16.688956
  38 O      6.143188     8.022004     3.941515    16.761680
  39 O      2.101733     6.163091     6.175045    16.695422
  40 O      5.954402     1.930225     1.897740    16.661339
  41 O      3.936555     3.943646     2.123920    16.725654
  42 O      4.106386     4.145810     5.973259    16.649597
  43 O      7.955564     2.128335     7.983190    16.640136
  44 O      0.100624     5.981544     0.081802    16.826003
  45 O      0.092943     0.061478     5.969140    16.660924
  46 O      7.965430     8.031869     2.104884    16.779714
  47 O      4.129224     5.976671     4.142489    16.743775
  48 O      3.932380     2.120258     3.936128    16.707884
  49 O      6.147488     2.130433     6.149481    16.657656
  50 O      1.927244     5.982989     1.910366    16.861717
  51 O      2.099892     3.970046     3.936005    16.648492
  52 O      5.957442     4.156926     4.137659    16.634779
  53 O      5.981198     0.099780     0.080148    16.622481
  54 O      2.076935     8.026573     7.992409    16.724915
  55 O      6.160324     6.177890     2.102002    16.815338
  56 O      1.914611     1.935653     5.957756    16.652515
