   56
jmolscript: load "" {1 1 1} spacegroup "x,y,z" unitcell [{      8.100270    -0.010842    -0.036431 }, {     -0.010854     8.104335     0.009788 }, {     -0.036446     0.009777     8.104974 }]
Li      1.006621     1.012909     1.009791     1.875784
Li      7.039053     7.090352     7.066230     1.886301
Li      5.028518     1.010333     5.052761     1.935074
Li      3.012950     7.090721     3.044365     1.851826
Li      0.978330     5.073034     5.073397     1.898972
Li      7.062850     3.033271     3.008638     1.907275
Li      5.041404     5.057669     1.004933     1.873783
Li      3.000113     3.043418     7.091999     1.915056
Mn      4.035883     4.050299     4.057252   109.284108
Mn      2.019158     6.077532    -0.001256   104.861792
Mn      6.083586     2.034001    -0.031374   105.816325
Mn      6.057991     0.004943     2.008363   112.943203
Mn      1.990638    -0.007383     6.073125   106.783193
Mn     -0.030340     2.025332     6.063817   118.064801
Mn     -0.017341     6.072570     2.016166   104.781177
Mn      4.059993    -0.007114     0.000209   107.713335
Mn      2.005966     2.030950     4.045789   109.641728
Mn      6.059636     6.090846     4.026048   103.491206
Mn      6.034339     4.061919     6.066238   112.502540
Mn      2.003351     4.039945     2.025865   104.512539
Mn     -0.016316     4.049990    -0.011982   108.770587
Mn      4.042396     2.012159     2.009366   106.716023
Mn      4.019021     6.069134     6.066834   107.737739
Mn     -0.028932     0.002978     4.035286   104.799621
O       2.124973     2.105702     2.117196   113.706424
O       5.930962     5.987272     5.955112   113.856586
O       3.912905     8.000670     6.181373   114.401077
O       4.129937     0.088819     1.916146   113.753311
O       7.968090     6.176166     3.936052   116.175615
O       0.087479     1.934492     4.129470   113.671752
O       6.130059     3.974717     7.989207   113.826793
O       1.910157     4.131989     0.101740   114.751808
O       0.105763     4.108846     1.921474   115.476608
O       7.952204     3.984242     6.152673   112.055760
O       4.152867     1.919331     0.085002   114.860601
O       3.909257     6.176860     7.993457   114.169399
O       1.897458     0.084880     4.149300   113.945892
O       6.143188     8.022004     3.941515   115.192618
O       2.101733     6.163091     6.175045   113.818359
O       5.954402     1.930225     1.897740   113.419357
O       3.936555     3.943646     2.123920   114.503680
O       4.106386     4.145810     5.973259   113.437310
O       7.955564     2.128335     7.983190   113.429426
O       0.100624     5.981544     0.081802   115.692798
O       0.092943     0.061478     5.969140   113.381500
O       7.965430     8.031869     2.104884   114.839834
O       4.129224     5.976671     4.142489   114.512584
O       3.932380     2.120258     3.936128   113.815227
O       6.147488     2.130433     6.149481   113.484420
O       1.927244     5.982989     1.910366   116.050720
O       2.099892     3.970046     3.936005   113.401285
O       5.957442     4.156926     4.137659   113.023357
O       5.981198     0.099780     0.080148   112.798228
O       2.076935     8.026573     7.992409   114.472567
O       6.160324     6.177890     2.102002   115.307626
O       1.914611     1.935653     5.957756   113.532668
  
Same information as above printed with atom number.
   1 Li     1.006621     1.012909     1.009791     1.875784
   2 Li     7.039053     7.090352     7.066230     1.886301
   3 Li     5.028518     1.010333     5.052761     1.935074
   4 Li     3.012950     7.090721     3.044365     1.851826
   5 Li     0.978330     5.073034     5.073397     1.898972
   6 Li     7.062850     3.033271     3.008638     1.907275
   7 Li     5.041404     5.057669     1.004933     1.873783
   8 Li     3.000113     3.043418     7.091999     1.915056
   9 Mn     4.035883     4.050299     4.057252   109.284108
  10 Mn     2.019158     6.077532    -0.001256   104.861792
  11 Mn     6.083586     2.034001    -0.031374   105.816325
  12 Mn     6.057991     0.004943     2.008363   112.943203
  13 Mn     1.990638    -0.007383     6.073125   106.783193
  14 Mn    -0.030340     2.025332     6.063817   118.064801
  15 Mn    -0.017341     6.072570     2.016166   104.781177
  16 Mn     4.059993    -0.007114     0.000209   107.713335
  17 Mn     2.005966     2.030950     4.045789   109.641728
  18 Mn     6.059636     6.090846     4.026048   103.491206
  19 Mn     6.034339     4.061919     6.066238   112.502540
  20 Mn     2.003351     4.039945     2.025865   104.512539
  21 Mn    -0.016316     4.049990    -0.011982   108.770587
  22 Mn     4.042396     2.012159     2.009366   106.716023
  23 Mn     4.019021     6.069134     6.066834   107.737739
  24 Mn    -0.028932     0.002978     4.035286   104.799621
  25 O      2.124973     2.105702     2.117196   113.706424
  26 O      5.930962     5.987272     5.955112   113.856586
  27 O      3.912905     8.000670     6.181373   114.401077
  28 O      4.129937     0.088819     1.916146   113.753311
  29 O      7.968090     6.176166     3.936052   116.175615
  30 O      0.087479     1.934492     4.129470   113.671752
  31 O      6.130059     3.974717     7.989207   113.826793
  32 O      1.910157     4.131989     0.101740   114.751808
  33 O      0.105763     4.108846     1.921474   115.476608
  34 O      7.952204     3.984242     6.152673   112.055760
  35 O      4.152867     1.919331     0.085002   114.860601
  36 O      3.909257     6.176860     7.993457   114.169399
  37 O      1.897458     0.084880     4.149300   113.945892
  38 O      6.143188     8.022004     3.941515   115.192618
  39 O      2.101733     6.163091     6.175045   113.818359
  40 O      5.954402     1.930225     1.897740   113.419357
  41 O      3.936555     3.943646     2.123920   114.503680
  42 O      4.106386     4.145810     5.973259   113.437310
  43 O      7.955564     2.128335     7.983190   113.429426
  44 O      0.100624     5.981544     0.081802   115.692798
  45 O      0.092943     0.061478     5.969140   113.381500
  46 O      7.965430     8.031869     2.104884   114.839834
  47 O      4.129224     5.976671     4.142489   114.512584
  48 O      3.932380     2.120258     3.936128   113.815227
  49 O      6.147488     2.130433     6.149481   113.484420
  50 O      1.927244     5.982989     1.910366   116.050720
  51 O      2.099892     3.970046     3.936005   113.401285
  52 O      5.957442     4.156926     4.137659   113.023357
  53 O      5.981198     0.099780     0.080148   112.798228
  54 O      2.076935     8.026573     7.992409   114.472567
  55 O      6.160324     6.177890     2.102002   115.307626
  56 O      1.914611     1.935653     5.957756   113.532668
