   56
jmolscript: load "" {1 1 1} spacegroup "x,y,z" unitcell [{      8.100270    -0.010842    -0.036431 }, {     -0.010854     8.104335     0.009788 }, {     -0.036446     0.009777     8.104974 }]
Li      1.006621     1.012909     1.009791     1.138158
Li      7.039053     7.090352     7.066230     1.141294
Li      5.028518     1.010333     5.052761     1.154863
Li      3.012950     7.090721     3.044365     1.130997
Li      0.978330     5.073034     5.073397     1.144682
Li      7.062850     3.033271     3.008638     1.147345
Li      5.041404     5.057669     1.004933     1.137353
Li      3.000113     3.043418     7.091999     1.149048
Mn      4.035883     4.050299     4.057252    41.255635
Mn      2.019158     6.077532    -0.001256    40.068800
Mn      6.083586     2.034001    -0.031374    40.339913
Mn      6.057991     0.004943     2.008363    42.192857
Mn      1.990638    -0.007383     6.073125    40.598224
Mn     -0.030340     2.025332     6.063817    43.522977
Mn     -0.017341     6.072570     2.016166    39.985667
Mn      4.059993    -0.007114     0.000209    40.852856
Mn      2.005966     2.030950     4.045789    41.347761
Mn      6.059636     6.090846     4.026048    39.717464
Mn      6.034339     4.061919     6.066238    42.088478
Mn      2.003351     4.039945     2.025865    40.000914
Mn     -0.016316     4.049990    -0.011982    41.118048
Mn      4.042396     2.012159     2.009366    40.578329
Mn      4.019021     6.069134     6.066834    40.840701
Mn     -0.028932     0.002978     4.035286    40.074671
O       2.124973     2.105702     2.117196    38.458231
O       5.930962     5.987272     5.955112    38.530957
O       3.912905     8.000670     6.181373    38.629157
O       4.129937     0.088819     1.916146    38.495897
O       7.968090     6.176166     3.936052    39.105877
O       0.087479     1.934492     4.129470    38.441859
O       6.130059     3.974717     7.989207    38.511219
O       1.910157     4.131989     0.101740    38.715038
O       0.105763     4.108846     1.921474    38.942787
O       7.952204     3.984242     6.152673    38.049186
O       4.152867     1.919331     0.085002    38.749836
O       3.909257     6.176860     7.993457    38.626514
O       1.897458     0.084880     4.149300    38.524996
O       6.143188     8.022004     3.941515    38.809987
O       2.101733     6.163091     6.175045    38.509955
O       5.954402     1.930225     1.897740    38.403683
O       3.936555     3.943646     2.123920    38.660304
O       4.106386     4.145810     5.973259    38.391779
O       7.955564     2.128335     7.983190    38.376084
O       0.100624     5.981544     0.081802    38.977713
O       0.092943     0.061478     5.969140    38.401138
O       7.965430     8.031869     2.104884    38.786798
O       4.129224     5.976671     4.142489    38.690407
O       3.932380     2.120258     3.936128    38.540401
O       6.147488     2.130433     6.149481    38.408944
O       1.927244     5.982989     1.910366    39.083060
O       2.099892     3.970046     3.936005    38.384887
O       5.957442     4.156926     4.137659    38.308886
O       5.981198     0.099780     0.080148    38.259815
O       2.076935     8.026573     7.992409    38.653425
O       6.160324     6.177890     2.102002    38.909482
O       1.914611     1.935653     5.957756    38.407518
  
Same information as above printed with atom number.
   1 Li     1.006621     1.012909     1.009791     1.138158
   2 Li     7.039053     7.090352     7.066230     1.141294
   3 Li     5.028518     1.010333     5.052761     1.154863
   4 Li     3.012950     7.090721     3.044365     1.130997
   5 Li     0.978330     5.073034     5.073397     1.144682
   6 Li     7.062850     3.033271     3.008638     1.147345
   7 Li     5.041404     5.057669     1.004933     1.137353
   8 Li     3.000113     3.043418     7.091999     1.149048
   9 Mn     4.035883     4.050299     4.057252    41.255635
  10 Mn     2.019158     6.077532    -0.001256    40.068800
  11 Mn     6.083586     2.034001    -0.031374    40.339913
  12 Mn     6.057991     0.004943     2.008363    42.192857
  13 Mn     1.990638    -0.007383     6.073125    40.598224
  14 Mn    -0.030340     2.025332     6.063817    43.522977
  15 Mn    -0.017341     6.072570     2.016166    39.985667
  16 Mn     4.059993    -0.007114     0.000209    40.852856
  17 Mn     2.005966     2.030950     4.045789    41.347761
  18 Mn     6.059636     6.090846     4.026048    39.717464
  19 Mn     6.034339     4.061919     6.066238    42.088478
  20 Mn     2.003351     4.039945     2.025865    40.000914
  21 Mn    -0.016316     4.049990    -0.011982    41.118048
  22 Mn     4.042396     2.012159     2.009366    40.578329
  23 Mn     4.019021     6.069134     6.066834    40.840701
  24 Mn    -0.028932     0.002978     4.035286    40.074671
  25 O      2.124973     2.105702     2.117196    38.458231
  26 O      5.930962     5.987272     5.955112    38.530957
  27 O      3.912905     8.000670     6.181373    38.629157
  28 O      4.129937     0.088819     1.916146    38.495897
  29 O      7.968090     6.176166     3.936052    39.105877
  30 O      0.087479     1.934492     4.129470    38.441859
  31 O      6.130059     3.974717     7.989207    38.511219
  32 O      1.910157     4.131989     0.101740    38.715038
  33 O      0.105763     4.108846     1.921474    38.942787
  34 O      7.952204     3.984242     6.152673    38.049186
  35 O      4.152867     1.919331     0.085002    38.749836
  36 O      3.909257     6.176860     7.993457    38.626514
  37 O      1.897458     0.084880     4.149300    38.524996
  38 O      6.143188     8.022004     3.941515    38.809987
  39 O      2.101733     6.163091     6.175045    38.509955
  40 O      5.954402     1.930225     1.897740    38.403683
  41 O      3.936555     3.943646     2.123920    38.660304
  42 O      4.106386     4.145810     5.973259    38.391779
  43 O      7.955564     2.128335     7.983190    38.376084
  44 O      0.100624     5.981544     0.081802    38.977713
  45 O      0.092943     0.061478     5.969140    38.401138
  46 O      7.965430     8.031869     2.104884    38.786798
  47 O      4.129224     5.976671     4.142489    38.690407
  48 O      3.932380     2.120258     3.936128    38.540401
  49 O      6.147488     2.130433     6.149481    38.408944
  50 O      1.927244     5.982989     1.910366    39.083060
  51 O      2.099892     3.970046     3.936005    38.384887
  52 O      5.957442     4.156926     4.137659    38.308886
  53 O      5.981198     0.099780     0.080148    38.259815
  54 O      2.076935     8.026573     7.992409    38.653425
  55 O      6.160324     6.177890     2.102002    38.909482
  56 O      1.914611     1.935653     5.957756    38.407518
