   36
jmolscript: load "" {1 1 1} spacegroup "x,y,z" unitcell [{      9.470200     0.000000     0.000000 }, {     -0.721600     9.442668     0.000000 }, {     -0.721600    -0.778849     9.410493 }]
Si      0.135660     2.474187     8.233157    15.547783
Si      7.984839     0.734243     3.132076    15.564441
Si      2.466669     8.190369     0.980498    15.557137
Si      5.585492     8.350230     1.157688    15.561539
Si      7.911801     0.658652     6.254125    15.562047
Si      0.060301     5.595385     8.406040    15.520062
Si      7.913334     6.190869     1.158089    15.503893
Si      0.062043     7.932626     6.255724    15.560277
Si      5.586137     0.477127     8.408285    15.594081
Si      2.466112     0.318234     8.233576    15.523629
Si      0.136520     8.009010     3.131926    15.558852
Si      7.985329     3.073479     0.982228    15.524898
O       1.594792     1.713679     8.420162    14.963334
O       0.010530     0.001298     3.031212    15.742089
O       8.112861     2.204376     2.384522    14.964031
O       3.026558     0.237796     0.246139    15.732557
O       1.593287     8.254155     2.385783    14.964382
O       0.012367     3.030308     0.246466    15.737844
O       6.455064     6.953421     0.978704    14.961355
O       8.036137     8.666078     6.362982    15.742311
O       6.455908     0.412457     7.001623    14.963213
O       8.033225     5.635717     9.144335    15.737084
O      -0.072824     6.462418     7.002957    14.968626
O       5.032485     8.433657     9.149217    15.733011
O       1.998300     6.936212    -0.013989    15.580454
O      -0.706791     1.938775     6.898925    15.575120
O       6.773237    -0.216217     2.495616    15.582711
O       6.771139     2.513720    -0.013582    15.578558
O      -0.710292     6.726024     2.490851    15.581581
O       1.993546    -0.558915     6.897133    15.588870
O       0.503159     7.593108     4.694095    14.786996
O       4.026246     0.798911     7.951230    14.791807
O       7.541367     4.601426     1.448982    14.772808
O       7.538931     1.074516     4.693053    14.776228
O       4.026118     7.864863     1.440135    14.774329
O       0.498577     4.065149     7.945967    14.783948
  
Same information as above printed with atom number.
   1 Si     0.135660     2.474187     8.233157    15.547783
   2 Si     7.984839     0.734243     3.132076    15.564441
   3 Si     2.466669     8.190369     0.980498    15.557137
   4 Si     5.585492     8.350230     1.157688    15.561539
   5 Si     7.911801     0.658652     6.254125    15.562047
   6 Si     0.060301     5.595385     8.406040    15.520062
   7 Si     7.913334     6.190869     1.158089    15.503893
   8 Si     0.062043     7.932626     6.255724    15.560277
   9 Si     5.586137     0.477127     8.408285    15.594081
  10 Si     2.466112     0.318234     8.233576    15.523629
  11 Si     0.136520     8.009010     3.131926    15.558852
  12 Si     7.985329     3.073479     0.982228    15.524898
  13 O      1.594792     1.713679     8.420162    14.963334
  14 O      0.010530     0.001298     3.031212    15.742089
  15 O      8.112861     2.204376     2.384522    14.964031
  16 O      3.026558     0.237796     0.246139    15.732557
  17 O      1.593287     8.254155     2.385783    14.964382
  18 O      0.012367     3.030308     0.246466    15.737844
  19 O      6.455064     6.953421     0.978704    14.961355
  20 O      8.036137     8.666078     6.362982    15.742311
  21 O      6.455908     0.412457     7.001623    14.963213
  22 O      8.033225     5.635717     9.144335    15.737084
  23 O     -0.072824     6.462418     7.002957    14.968626
  24 O      5.032485     8.433657     9.149217    15.733011
  25 O      1.998300     6.936212    -0.013989    15.580454
  26 O     -0.706791     1.938775     6.898925    15.575120
  27 O      6.773237    -0.216217     2.495616    15.582711
  28 O      6.771139     2.513720    -0.013582    15.578558
  29 O     -0.710292     6.726024     2.490851    15.581581
  30 O      1.993546    -0.558915     6.897133    15.588870
  31 O      0.503159     7.593108     4.694095    14.786996
  32 O      4.026246     0.798911     7.951230    14.791807
  33 O      7.541367     4.601426     1.448982    14.772808
  34 O      7.538931     1.074516     4.693053    14.776228
  35 O      4.026118     7.864863     1.440135    14.774329
  36 O      0.498577     4.065149     7.945967    14.783948
