   36
jmolscript: load "" {1 1 1} spacegroup "x,y,z" unitcell [{      9.470200     0.000000     0.000000 }, {     -0.721600     9.442668     0.000000 }, {     -0.721600    -0.778849     9.410493 }]
Si      0.135660     2.474187     8.233157   132.554404
Si      7.984839     0.734243     3.132076   132.359888
Si      2.466669     8.190369     0.980498   132.339237
Si      5.585492     8.350230     1.157688   132.790883
Si      7.911801     0.658652     6.254125   133.293979
Si      0.060301     5.595385     8.406040   132.128585
Si      7.913334     6.190869     1.158089   130.561007
Si      0.062043     7.932626     6.255724   133.594783
Si      5.586137     0.477127     8.408285   133.760020
Si      2.466112     0.318234     8.233576   132.307020
Si      0.136520     8.009010     3.131926   132.484233
Si      7.985329     3.073479     0.982228   131.133265
O       1.594792     1.713679     8.420162    84.819388
O       0.010530     0.001298     3.031212    95.594196
O       8.112861     2.204376     2.384522    84.965878
O       3.026558     0.237796     0.246139    95.537302
O       1.593287     8.254155     2.385783    84.891907
O       0.012367     3.030308     0.246466    95.578322
O       6.455064     6.953421     0.978704    84.919574
O       8.036137     8.666078     6.362982    95.549861
O       6.455908     0.412457     7.001623    84.813660
O       8.033225     5.635717     9.144335    95.570925
O      -0.072824     6.462418     7.002957    84.912809
O       5.032485     8.433657     9.149217    95.474984
O       1.998300     6.936212    -0.013989    93.236722
O      -0.706791     1.938775     6.898925    93.145366
O       6.773237    -0.216217     2.495616    93.156395
O       6.771139     2.513720    -0.013582    93.171863
O      -0.710292     6.726024     2.490851    93.250268
O       1.993546    -0.558915     6.897133    93.261289
O       0.503159     7.593108     4.694095    82.137084
O       4.026246     0.798911     7.951230    82.219402
O       7.541367     4.601426     1.448982    82.118824
O       7.538931     1.074516     4.693053    82.016851
O       4.026118     7.864863     1.440135    82.160704
O       0.498577     4.065149     7.945967    82.186702
  
Same information as above printed with atom number.
   1 Si     0.135660     2.474187     8.233157   132.554404
   2 Si     7.984839     0.734243     3.132076   132.359888
   3 Si     2.466669     8.190369     0.980498   132.339237
   4 Si     5.585492     8.350230     1.157688   132.790883
   5 Si     7.911801     0.658652     6.254125   133.293979
   6 Si     0.060301     5.595385     8.406040   132.128585
   7 Si     7.913334     6.190869     1.158089   130.561007
   8 Si     0.062043     7.932626     6.255724   133.594783
   9 Si     5.586137     0.477127     8.408285   133.760020
  10 Si     2.466112     0.318234     8.233576   132.307020
  11 Si     0.136520     8.009010     3.131926   132.484233
  12 Si     7.985329     3.073479     0.982228   131.133265
  13 O      1.594792     1.713679     8.420162    84.819388
  14 O      0.010530     0.001298     3.031212    95.594196
  15 O      8.112861     2.204376     2.384522    84.965878
  16 O      3.026558     0.237796     0.246139    95.537302
  17 O      1.593287     8.254155     2.385783    84.891907
  18 O      0.012367     3.030308     0.246466    95.578322
  19 O      6.455064     6.953421     0.978704    84.919574
  20 O      8.036137     8.666078     6.362982    95.549861
  21 O      6.455908     0.412457     7.001623    84.813660
  22 O      8.033225     5.635717     9.144335    95.570925
  23 O     -0.072824     6.462418     7.002957    84.912809
  24 O      5.032485     8.433657     9.149217    95.474984
  25 O      1.998300     6.936212    -0.013989    93.236722
  26 O     -0.706791     1.938775     6.898925    93.145366
  27 O      6.773237    -0.216217     2.495616    93.156395
  28 O      6.771139     2.513720    -0.013582    93.171863
  29 O     -0.710292     6.726024     2.490851    93.250268
  30 O      1.993546    -0.558915     6.897133    93.261289
  31 O      0.503159     7.593108     4.694095    82.137084
  32 O      4.026246     0.798911     7.951230    82.219402
  33 O      7.541367     4.601426     1.448982    82.118824
  34 O      7.538931     1.074516     4.693053    82.016851
  35 O      4.026118     7.864863     1.440135    82.160704
  36 O      0.498577     4.065149     7.945967    82.186702
