   56
jmolscript: load "" {1 1 1} spacegroup "x,y,z" unitcell [{      8.100270    -0.010842    -0.036431 }, {     -0.010854     8.104335     0.009788 }, {     -0.036446     0.009777     8.104974 }]
Li     1.006621     1.012909     1.009791     0.857766
Li     7.039053     7.090352     7.066230     0.858705
Li     5.028518     1.010333     5.052761     0.857657
Li     3.012950     7.090721     3.044365     0.858100
Li     0.978330     5.073034     5.073397     0.858780
Li     7.062850     3.033271     3.008638     0.858507
Li     5.041404     5.057669     1.004933     0.857960
Li     3.000113     3.043418     7.091999     0.858120
Mn     4.035883     4.050299     4.057252     1.233107
Mn     2.019158     6.077532    -0.001256     1.263649
Mn     6.083586     2.034001    -0.031374     1.262379
Mn     6.057991     0.004943     2.008363     1.207875
Mn     1.990638    -0.007383     6.073125     1.252460
Mn    -0.030340     2.025332     6.063817     1.184799
Mn    -0.017341     6.072570     2.016166     1.266795
Mn     4.059993    -0.007114     0.000209     1.244483
Mn     2.005966     2.030950     4.045789     1.233424
Mn     6.059636     6.090846     4.026048     1.272747
Mn     6.034339     4.061919     6.066238     1.216068
Mn     2.003351     4.039945     2.025865     1.267676
Mn    -0.016316     4.049990    -0.011982     1.240038
Mn     4.042396     2.012159     2.009366     1.249122
Mn     4.019021     6.069134     6.066834     1.240162
Mn    -0.028932     0.002978     4.035286     1.267841
O      2.124973     2.105702     2.117196    -0.832575
O      5.930962     5.987272     5.955112    -0.837494
O      3.912905     8.000670     6.181373    -0.835042
O      4.129937     0.088819     1.916146    -0.835045
O      7.968090     6.176166     3.936052    -0.850471
O      0.087479     1.934492     4.129470    -0.832422
O      6.130059     3.974717     7.989207    -0.835677
O      1.910157     4.131989     0.101740    -0.836173
O      0.105763     4.108846     1.921474    -0.848630
O      7.952204     3.984242     6.152673    -0.825726
O      4.152867     1.919331     0.085002    -0.837677
O      3.909257     6.176860     7.993457    -0.837762
O      1.897458     0.084880     4.149300    -0.833404
O      6.143188     8.022004     3.941515    -0.838440
O      2.101733     6.163091     6.175045    -0.836323
O      5.954402     1.930225     1.897740    -0.833306
O      3.936555     3.943646     2.123920    -0.836148
O      4.106386     4.145810     5.973259    -0.831532
O      7.955564     2.128335     7.983190    -0.830579
O      0.100624     5.981544     0.081802    -0.846867
O      0.092943     0.061478     5.969140    -0.833296
O      7.965430     8.031869     2.104884    -0.846949
O      4.129224     5.976671     4.142489    -0.838736
O      3.932380     2.120258     3.936128    -0.837010
O      6.147488     2.130433     6.149481    -0.833279
O      1.927244     5.982989     1.910366    -0.849011
O      2.099892     3.970046     3.936005    -0.828289
O      5.957442     4.156926     4.137659    -0.830394
O      5.981198     0.099780     0.080148    -0.829354
O      2.076935     8.026573     7.992409    -0.833806
O      6.160324     6.177890     2.102002    -0.845460
O      1.914611     1.935653     5.957756    -0.831342
 
 Chargemol version 3.5 September 26, 2017.
See ddec.sourceforge.net for latest version.
 
Computational parameters:
Number of radial integration shells =    100
Cutoff radius (pm) =    500
Error in the integrated total number of electrons before renormalization (e) =    2.2579E-06
Charge convergence tolerance =    1.0000E-05
Minimum radius for electron cloud penetration fitting (pm) =    200
Minimum decay exponent for electron density of buried atom tails =   1.7500
Maximum decay exponent for electron density of buried atom tails =  2.5000
Number of iterations to convergence =      7
 
The following XYZ coordinates are in angstroms. The atomic dipoles and quadrupoles are in atomic units.
atom number, atomic symbol, x, y, z, net_charge, dipole_x, dipole_y, dipole_z, dipole_mag, Qxy, Qxz, Qyz,Q(x^2-y^2), Q(3z^2 - R^2), three eigenvalues of traceless quadrupole moment tensor
    1 Li     1.006621     1.012909     1.009791     0.857766    -0.000882    -0.000301    -0.000410     0.001018     0.000040     0.000248    -0.000252    -0.000209    -0.000768    -0.000482     0.000128     0.000354
    2 Li     7.039053     7.090352     7.066230     0.858705     0.000529     0.000303     0.000342     0.000699    -0.000155     0.000174    -0.000627    -0.000947     0.000047    -0.000541    -0.000402     0.000943
    3 Li     5.028518     1.010333     5.052761     0.857657    -0.000029    -0.000178    -0.000356     0.000399    -0.000401     0.000265     0.000538    -0.000075    -0.000240    -0.000812     0.000227     0.000585
    4 Li     3.012950     7.090721     3.044365     0.858100     0.000765     0.000650    -0.000194     0.001022     0.000952     0.000320    -0.000014    -0.000776    -0.000718    -0.001007    -0.000161     0.001168
    5 Li     0.978330     5.073034     5.073397     0.858780    -0.000652    -0.000488    -0.000024     0.000815    -0.000258     0.000274    -0.000185    -0.000022    -0.001550    -0.000617     0.000007     0.000610
    6 Li     7.062850     3.033271     3.008638     0.858507     0.000591     0.000221     0.000385     0.000739     0.000007     0.000023    -0.000725    -0.000677     0.000607    -0.000512    -0.000433     0.000945
    7 Li     5.041404     5.057669     1.004933     0.857960     0.000242    -0.000397    -0.000639     0.000790    -0.000394     0.000201     0.000762    -0.000530     0.000697    -0.000915    -0.000052     0.000966
    8 Li     3.000113     3.043418     7.091999     0.858120     0.000575     0.000488    -0.000349     0.000831     0.000678     0.000274    -0.000031    -0.000424    -0.001075    -0.000703    -0.000202     0.000905
    9 Mn     4.035883     4.050299     4.057252     1.233107    -0.001680    -0.000174    -0.002627     0.003123    -0.007787     0.000371    -0.007822     0.000313     0.029373    -0.013984     0.000121     0.013863
   10 Mn     2.019158     6.077532    -0.001256     1.263649    -0.000714    -0.002400    -0.000049     0.002505    -0.016434     0.023278     0.011646    -0.032077    -0.013842    -0.039835     0.014379     0.025456
   11 Mn     6.083586     2.034001    -0.031374     1.262379    -0.002154    -0.004136     0.004911     0.006773    -0.010823     0.010092     0.011963    -0.001197     0.008430    -0.022024     0.008866     0.013158
   12 Mn     6.057991     0.004943     2.008363     1.207875     0.003794    -0.000647    -0.001949     0.004314     0.003189     0.009222     0.012329     0.002546     0.025665    -0.013198    -0.006557     0.019755
   13 Mn     1.990638    -0.007383     6.073125     1.252460    -0.000498    -0.002525    -0.002135     0.003344     0.001306    -0.019326     0.001553    -0.010806    -0.017617    -0.023699     0.008466     0.015233
   14 Mn    -0.030340     2.025332     6.063817     1.184799    -0.001933     0.001562     0.000400     0.002517    -0.003197    -0.004255    -0.002843     0.022407    -0.005196    -0.011985    -0.001521     0.013506
   15 Mn    -0.017341     6.072570     2.016166     1.266795    -0.001156     0.002413     0.001709     0.003175     0.025051     0.025811    -0.024585     0.021025    -0.013694    -0.051222     0.018088     0.033133
   16 Mn     4.059993    -0.007114     0.000209     1.244483    -0.001349    -0.001412    -0.003043     0.003615    -0.013804    -0.011679     0.003542    -0.022467    -0.011080    -0.021118    -0.001335     0.022452
   17 Mn     2.005966     2.030950     4.045789     1.233424    -0.000740    -0.002628    -0.000414     0.002761    -0.008113     0.003502     0.002218    -0.010645     0.040078    -0.016948     0.003017     0.013931
   18 Mn     6.059636     6.090846     4.026048     1.272747    -0.002592    -0.004792     0.003334     0.006387    -0.015344     0.014293     0.019935    -0.016947    -0.040268    -0.035482     0.007750     0.027732
   19 Mn     6.034339     4.061919     6.066238     1.216068     0.003145     0.000826    -0.001015     0.003406     0.002312     0.006979     0.010095    -0.000928    -0.011053    -0.012647    -0.000488     0.013135
   20 Mn     2.003351     4.039945     2.025865     1.267676    -0.000225     0.001838    -0.001344     0.002288    -0.000527    -0.026943     0.011442    -0.009568     0.021714    -0.030041    -0.000551     0.030592
   21 Mn    -0.016316     4.049990    -0.011982     1.240038     0.003129     0.001884     0.002532     0.004444    -0.007086    -0.001249    -0.007776    -0.012265     0.011298    -0.012596    -0.000144     0.012739
   22 Mn     4.042396     2.012159     2.009366     1.249122     0.000306     0.001230     0.004051     0.004245    -0.009980     0.018812    -0.005192    -0.016007    -0.032059    -0.026047     0.002009     0.024038
   23 Mn     4.019021     6.069134     6.066834     1.240162    -0.000479     0.001391     0.002634     0.003017     0.008727     0.009822    -0.008053    -0.029623    -0.044520    -0.024510    -0.000841     0.025351
   24 Mn    -0.028932     0.002978     4.035286     1.267841     0.003750    -0.000287     0.001814     0.004175    -0.012358    -0.002085    -0.026697     0.014757    -0.037084    -0.035890     0.009414     0.026476
   25 O      2.124973     2.105702     2.117196    -0.832575    -0.023392    -0.026527    -0.022383     0.041855    -0.015799    -0.017085    -0.017899    -0.004940    -0.001492    -0.033935     0.014851     0.019085
   26 O      5.930962     5.987272     5.955112    -0.837494     0.026579     0.021810     0.023590     0.041696    -0.017879    -0.012281    -0.017354    -0.006325    -0.005902    -0.031681     0.010204     0.021477
   27 O      3.912905     8.000670     6.181373    -0.835042     0.022854     0.021037    -0.021458     0.037754    -0.016880     0.017523     0.016276    -0.004456    -0.005292    -0.033920     0.015861     0.018060
   28 O      4.129937     0.088819     1.916146    -0.835045    -0.025209    -0.026801     0.029058     0.046884    -0.016790     0.016645     0.016048    -0.002054    -0.003578    -0.033020     0.015574     0.017447
   29 O      7.968090     6.176166     3.936052    -0.850471     0.030046    -0.025891     0.028713     0.048965     0.019214    -0.013041     0.017919    -0.004766    -0.010871    -0.033464     0.010732     0.022732
   30 O      0.087479     1.934492     4.129470    -0.832422    -0.023334     0.025033    -0.026868     0.043509     0.015551    -0.017076     0.018970     0.000047     0.008649    -0.034424     0.013934     0.020490
   31 O      6.130059     3.974717     7.989207    -0.835677    -0.027873     0.031406     0.025801     0.049285     0.015318     0.014224    -0.017326     0.000247    -0.002042    -0.031297     0.013949     0.017347
   32 O      1.910157     4.131989     0.101740    -0.836173     0.019117    -0.025705    -0.025302     0.040821     0.017345     0.016659    -0.017222    -0.004738     0.003495    -0.034230     0.015431     0.018799
   33 O      0.105763     4.108846     1.921474    -0.848630    -0.027528    -0.034405     0.021687     0.049110    -0.014651     0.019497     0.016901    -0.002046     0.010843    -0.034122     0.012814     0.021308
   34 O      7.952204     3.984242     6.152673    -0.825726     0.019428     0.023991    -0.026937     0.040971    -0.015637     0.017350     0.017861    -0.006932    -0.009666    -0.034221     0.014643     0.019578
   35 O      4.152867     1.919331     0.085002    -0.837677    -0.022281     0.023904    -0.023896     0.040483     0.016506    -0.015443     0.016312    -0.001000     0.004729    -0.032215     0.015228     0.016987
   36 O      3.909257     6.176860     7.993457    -0.837762     0.025838    -0.022694     0.018981     0.039279     0.017283    -0.015894     0.015717    -0.004210    -0.012302    -0.032759     0.013139     0.019620
   37 O      1.897458     0.084880     4.149300    -0.833404     0.023038    -0.023646    -0.023536     0.040544     0.017619     0.015129    -0.018207    -0.000828    -0.005375    -0.034001     0.014481     0.019520
   38 O      6.143188     8.022004     3.941515    -0.838440    -0.029563     0.030751     0.023818     0.048856     0.016836     0.015136    -0.019279    -0.000037     0.001163    -0.034222     0.014671     0.019551
   39 O      2.101733     6.163091     6.175045    -0.836323    -0.021640    -0.023808    -0.025597     0.041114    -0.017697    -0.016058    -0.018189    -0.009147    -0.008302    -0.034825     0.013060     0.021765
   40 O      5.954402     1.930225     1.897740    -0.833306     0.027351     0.021252     0.022773     0.041453    -0.016571    -0.015453    -0.016585    -0.002696     0.000625    -0.032418     0.014758     0.017660
   41 O      3.936555     3.943646     2.123920    -0.836148     0.024913     0.021536    -0.019187     0.038113    -0.016511     0.017014     0.017488    -0.002674    -0.001748    -0.034036     0.015941     0.018095
   42 O      4.106386     4.145810     5.973259    -0.831532    -0.026094    -0.025411     0.026296     0.044924    -0.017446     0.017107     0.016274    -0.001052    -0.005905    -0.033918     0.015468     0.018450
   43 O      7.955564     2.128335     7.983190    -0.830579     0.028676    -0.024300     0.025124     0.045211     0.016906    -0.013123     0.014934    -0.003296     0.009187    -0.030265     0.013172     0.017093
   44 O      0.100624     5.981544     0.081802    -0.846867    -0.026129     0.021438    -0.033915     0.047880     0.017669    -0.015842     0.018895    -0.008128    -0.005632    -0.035039     0.013207     0.021832
   45 O      0.092943     0.061478     5.969140    -0.833296    -0.024780    -0.029000     0.024264     0.045208    -0.017068     0.016787     0.017534    -0.009906    -0.009332    -0.034603     0.013516     0.021087
   46 O      7.965430     8.031869     2.104884    -0.846949     0.019748     0.029792    -0.031458     0.047615    -0.015191     0.018985     0.016734     0.005394    -0.003200    -0.034045     0.013854     0.020191
   47 O      4.129224     5.976671     4.142489    -0.838736    -0.024000     0.023009    -0.022409     0.040095     0.016994    -0.013624     0.017833    -0.000981     0.001632    -0.032353     0.013378     0.018975
   48 O      3.932380     2.120258     3.936128    -0.837010     0.022807    -0.022400     0.021873     0.038735     0.016470    -0.015680     0.015570    -0.000205     0.002749    -0.031837     0.015824     0.016012
   49 O      6.147488     2.130433     6.149481    -0.833279    -0.021186    -0.020444    -0.029087     0.041387    -0.013875    -0.014827    -0.017786     0.003023    -0.000156    -0.031155     0.013852     0.017304
   50 O      1.927244     5.982989     1.910366    -0.849011     0.030018     0.023571     0.028605     0.047696    -0.017949    -0.015740    -0.017984    -0.007460    -0.007817    -0.034562     0.013224     0.021338
   51 O      2.099892     3.970046     3.936005    -0.828289    -0.021719     0.025652     0.027313     0.043310     0.018314     0.016481    -0.018115    -0.004187     0.002095    -0.035313     0.015499     0.019814
   52 O      5.957442     4.156926     4.137659    -0.830394     0.028450    -0.024376    -0.019980     0.042460     0.015268     0.019918    -0.016511    -0.001590    -0.001773    -0.034613     0.015113     0.019499
   53 O      5.981198     0.099780     0.080148    -0.829354     0.029989    -0.023289    -0.020347     0.043077     0.016747     0.019585    -0.015397     0.000039     0.001227    -0.034543     0.014754     0.019788
   54 O      2.076935     8.026573     7.992409    -0.833806    -0.023401     0.029714     0.023785     0.044680     0.017428     0.017438    -0.015833    -0.005600    -0.010167    -0.034043     0.014621     0.019423
   55 O      6.160324     6.177890     2.102002    -0.845460    -0.028811    -0.019818    -0.029626     0.045832    -0.014798    -0.015020    -0.019531    -0.000940    -0.004433    -0.033049     0.013565     0.019484
   56 O      1.914611     1.935653     5.957756    -0.831342     0.024162     0.024010     0.025265     0.042410    -0.016920    -0.015428    -0.016090     0.002694    -0.009462    -0.032389     0.013815     0.018575
 
The sperically averaged electron density of each atom fit to a function of the form exp(a - br) for r >=rmin_cloud_penetration
atom number,atomic symbol, x, y, z, a, b, Rsquared where a and b are in atomic units and Rsquared is the squared correlation coefficient
    1 Li     1.006621     1.012909     1.009791    -3.018421     1.749496     0.999978
    2 Li     7.039053     7.090352     7.066230    -3.024272     1.749317     0.999977
    3 Li     5.028518     1.010333     5.052761    -3.017548     1.749466     0.999976
    4 Li     3.012950     7.090721     3.044365    -3.017183     1.749599     0.999978
    5 Li     0.978330     5.073034     5.073397    -3.023762     1.749324     0.999978
    6 Li     7.062850     3.033271     3.008638    -3.024175     1.749383     0.999977
    7 Li     5.041404     5.057669     1.004933    -3.015497     1.749531     0.999977
    8 Li     3.000113     3.043418     7.091999    -3.023185     1.749535     0.999976
    9 Mn     4.035883     4.050299     4.057252    -0.319712     1.755934     0.999985
   10 Mn     2.019158     6.077532    -0.001256    -0.327162     1.757204     0.999979
   11 Mn     6.083586     2.034001    -0.031374    -0.334142     1.756069     0.999983
   12 Mn     6.057991     0.004943     2.008363    -0.291588     1.757629     0.999979
   13 Mn     1.990638    -0.007383     6.073125    -0.325874     1.757186     0.999980
   14 Mn    -0.030340     2.025332     6.063817    -0.282664     1.756643     0.999981
   15 Mn    -0.017341     6.072570     2.016166    -0.319211     1.757581     0.999975
   16 Mn     4.059993    -0.007114     0.000209    -0.325422     1.756151     0.999983
   17 Mn     2.005966     2.030950     4.045789    -0.313555     1.756621     0.999983
   18 Mn     6.059636     6.090846     4.026048    -0.335072     1.756705     0.999980
   19 Mn     6.034339     4.061919     6.066238    -0.302734     1.756849     0.999983
   20 Mn     2.003351     4.039945     2.025865    -0.331181     1.758008     0.999977
   21 Mn    -0.016316     4.049990    -0.011982    -0.318092     1.757241     0.999980
   22 Mn     4.042396     2.012159     2.009366    -0.326075     1.756187     0.999983
   23 Mn     4.019021     6.069134     6.066834    -0.320572     1.756206     0.999982
   24 Mn    -0.028932     0.002978     4.035286    -0.334057     1.757320     0.999979
   25 O      2.124973     2.105702     2.117196    -0.839854     1.750615     0.999998
   26 O      5.930962     5.987272     5.955112    -0.846123     1.750432     0.999997
   27 O      3.912905     8.000670     6.181373    -0.836759     1.750620     0.999998
   28 O      4.129937     0.088819     1.916146    -0.846506     1.750638     0.999998
   29 O      7.968090     6.176166     3.936052    -0.829811     1.750633     0.999998
   30 O      0.087479     1.934492     4.129470    -0.838201     1.750536     0.999998
   31 O      6.130059     3.974717     7.989207    -0.845751     1.750567     0.999998
   32 O      1.910157     4.131989     0.101740    -0.833666     1.750697     0.999998
   33 O      0.105763     4.108846     1.921474    -0.837571     1.750554     0.999998
   34 O      7.952204     3.984242     6.152673    -0.850970     1.750487     0.999997
   35 O      4.152867     1.919331     0.085002    -0.836471     1.750533     0.999998
   36 O      3.909257     6.176860     7.993457    -0.850806     1.750586     0.999998
   37 O      1.897458     0.084880     4.149300    -0.839505     1.750696     0.999997
   38 O      6.143188     8.022004     3.941515    -0.829526     1.750633     0.999998
   39 O      2.101733     6.163091     6.175045    -0.843322     1.750560     0.999997
   40 O      5.954402     1.930225     1.897740    -0.846630     1.750493     0.999998
   41 O      3.936555     3.943646     2.123920    -0.836185     1.750679     0.999998
   42 O      4.106386     4.145810     5.973259    -0.847032     1.750512     0.999998
   43 O      7.955564     2.128335     7.983190    -0.841600     1.750579     0.999998
   44 O      0.100624     5.981544     0.081802    -0.833885     1.750475     0.999998
   45 O      0.092943     0.061478     5.969140    -0.847483     1.750477     0.999997
   46 O      7.965430     8.031869     2.104884    -0.836432     1.750491     0.999997
   47 O      4.129224     5.976671     4.142489    -0.841699     1.750529     0.999997
   48 O      3.932380     2.120258     3.936128    -0.854642     1.750455     0.999998
   49 O      6.147488     2.130433     6.149481    -0.842325     1.750548     0.999998
   50 O      1.927244     5.982989     1.910366    -0.828594     1.750695     0.999998
   51 O      2.099892     3.970046     3.936005    -0.848506     1.750599     0.999998
   52 O      5.957442     4.156926     4.137659    -0.855015     1.750611     0.999998
   53 O      5.981198     0.099780     0.080148    -0.858392     1.750568     0.999997
   54 O      2.076935     8.026573     7.992409    -0.840638     1.750602     0.999998
   55 O      6.160324     6.177890     2.102002    -0.839041     1.750559     0.999998
   56 O      1.914611     1.935653     5.957756    -0.837094     1.750603     0.999998
 
 2017/10/01  14:44:26
