   56
jmolscript: load "" {1 1 1} spacegroup "x,y,z" unitcell [{      8.100270    -0.010842    -0.036431 }, {     -0.010854     8.104335     0.009788 }, {     -0.036446     0.009777     8.104974 }]
Li      1.006621     1.012909     1.009791     3.433946
Li      7.039053     7.090352     7.066230     3.420614
Li      5.028518     1.010333     5.052761     3.436145
Li      3.012950     7.090721     3.044365     3.434714
Li      0.978330     5.073034     5.073397     3.422378
Li      7.062850     3.033271     3.008638     3.421630
Li      5.041404     5.057669     1.004933     3.437148
Li      3.000113     3.043418     7.091999     3.425902
Mn      4.035883     4.050299     4.057252    51.396373
Mn      2.019158     6.077532    -0.001256    50.896976
Mn      6.083586     2.034001    -0.031374    50.875463
Mn      6.057991     0.004943     2.008363    52.019922
Mn      1.990638    -0.007383     6.073125    51.029448
Mn     -0.030340     2.025332     6.063817    52.547650
Mn     -0.017341     6.072570     2.016166    50.888663
Mn      4.059993    -0.007114     0.000209    51.195706
Mn      2.005966     2.030950     4.045789    51.479543
Mn      6.059636     6.090846     4.026048    50.689384
Mn      6.034339     4.061919     6.066238    51.816188
Mn      2.003351     4.039945     2.025865    50.749468
Mn     -0.016316     4.049990    -0.011982    51.305589
Mn      4.042396     2.012159     2.009366    51.121569
Mn      4.019021     6.069134     6.066834    51.292497
Mn     -0.028932     0.002978     4.035286    50.761536
O       2.124973     2.105702     2.117196    33.813685
O       5.930962     5.987272     5.955112    33.861084
O       3.912905     8.000670     6.181373    33.893298
O       4.129937     0.088819     1.916146    33.847785
O       7.968090     6.176166     3.936052    34.051405
O       0.087479     1.934492     4.129470    33.879262
O       6.130059     3.974717     7.989207    33.863305
O       1.910157     4.131989     0.101740    33.906897
O       0.105763     4.108846     1.921474    34.002546
O       7.952204     3.984242     6.152673    33.754276
O       4.152867     1.919331     0.085002    33.924196
O       3.909257     6.176860     7.993457    33.830467
O       1.897458     0.084880     4.149300    33.855182
O       6.143188     8.022004     3.941515    33.949556
O       2.101733     6.163091     6.175045    33.828721
O       5.954402     1.930225     1.897740    33.800720
O       3.936555     3.943646     2.123920    33.908802
O       4.106386     4.145810     5.973259    33.777878
O       7.955564     2.128335     7.983190    33.832881
O       0.100624     5.981544     0.081802    34.000810
O       0.092943     0.061478     5.969140    33.841121
O       7.965430     8.031869     2.104884    34.011921
O       4.129224     5.976671     4.142489    33.912639
O       3.932380     2.120258     3.936128    33.821281
O       6.147488     2.130433     6.149481    33.864855
O       1.927244     5.982989     1.910366    34.072365
O       2.099892     3.970046     3.936005    33.744239
O       5.957442     4.156926     4.137659    33.693409
O       5.981198     0.099780     0.080148    33.679416
O       2.076935     8.026573     7.992409    33.844105
O       6.160324     6.177890     2.102002    33.985859
O       1.914611     1.935653     5.957756    33.893245
  
Same information as above printed with atom number.
   1 Li     1.006621     1.012909     1.009791     3.433946
   2 Li     7.039053     7.090352     7.066230     3.420614
   3 Li     5.028518     1.010333     5.052761     3.436145
   4 Li     3.012950     7.090721     3.044365     3.434714
   5 Li     0.978330     5.073034     5.073397     3.422378
   6 Li     7.062850     3.033271     3.008638     3.421630
   7 Li     5.041404     5.057669     1.004933     3.437148
   8 Li     3.000113     3.043418     7.091999     3.425902
   9 Mn     4.035883     4.050299     4.057252    51.396373
  10 Mn     2.019158     6.077532    -0.001256    50.896976
  11 Mn     6.083586     2.034001    -0.031374    50.875463
  12 Mn     6.057991     0.004943     2.008363    52.019922
  13 Mn     1.990638    -0.007383     6.073125    51.029448
  14 Mn    -0.030340     2.025332     6.063817    52.547650
  15 Mn    -0.017341     6.072570     2.016166    50.888663
  16 Mn     4.059993    -0.007114     0.000209    51.195706
  17 Mn     2.005966     2.030950     4.045789    51.479543
  18 Mn     6.059636     6.090846     4.026048    50.689384
  19 Mn     6.034339     4.061919     6.066238    51.816188
  20 Mn     2.003351     4.039945     2.025865    50.749468
  21 Mn    -0.016316     4.049990    -0.011982    51.305589
  22 Mn     4.042396     2.012159     2.009366    51.121569
  23 Mn     4.019021     6.069134     6.066834    51.292497
  24 Mn    -0.028932     0.002978     4.035286    50.761536
  25 O      2.124973     2.105702     2.117196    33.813685
  26 O      5.930962     5.987272     5.955112    33.861084
  27 O      3.912905     8.000670     6.181373    33.893298
  28 O      4.129937     0.088819     1.916146    33.847785
  29 O      7.968090     6.176166     3.936052    34.051405
  30 O      0.087479     1.934492     4.129470    33.879262
  31 O      6.130059     3.974717     7.989207    33.863305
  32 O      1.910157     4.131989     0.101740    33.906897
  33 O      0.105763     4.108846     1.921474    34.002546
  34 O      7.952204     3.984242     6.152673    33.754276
  35 O      4.152867     1.919331     0.085002    33.924196
  36 O      3.909257     6.176860     7.993457    33.830467
  37 O      1.897458     0.084880     4.149300    33.855182
  38 O      6.143188     8.022004     3.941515    33.949556
  39 O      2.101733     6.163091     6.175045    33.828721
  40 O      5.954402     1.930225     1.897740    33.800720
  41 O      3.936555     3.943646     2.123920    33.908802
  42 O      4.106386     4.145810     5.973259    33.777878
  43 O      7.955564     2.128335     7.983190    33.832881
  44 O      0.100624     5.981544     0.081802    34.000810
  45 O      0.092943     0.061478     5.969140    33.841121
  46 O      7.965430     8.031869     2.104884    34.011921
  47 O      4.129224     5.976671     4.142489    33.912639
  48 O      3.932380     2.120258     3.936128    33.821281
  49 O      6.147488     2.130433     6.149481    33.864855
  50 O      1.927244     5.982989     1.910366    34.072365
  51 O      2.099892     3.970046     3.936005    33.744239
  52 O      5.957442     4.156926     4.137659    33.693409
  53 O      5.981198     0.099780     0.080148    33.679416
  54 O      2.076935     8.026573     7.992409    33.844105
  55 O      6.160324     6.177890     2.102002    33.985859
  56 O      1.914611     1.935653     5.957756    33.893245
