   56
jmolscript: load "" {1 1 1} spacegroup "x,y,z" unitcell [{      8.100270    -0.010842    -0.036431 }, {     -0.010854     8.104335     0.009788 }, {     -0.036446     0.009777     8.104974 }]
Li      1.006621     1.012909     1.009791     9.863282
Li      7.039053     7.090352     7.066230     9.819318
Li      5.028518     1.010333     5.052761     9.871999
Li      3.012950     7.090721     3.044365     9.869500
Li      0.978330     5.073034     5.073397     9.827333
Li      7.062850     3.033271     3.008638     9.820713
Li      5.041404     5.057669     1.004933     9.880409
Li      3.000113     3.043418     7.091999     9.831270
Mn      4.035883     4.050299     4.057252   148.805531
Mn      2.019158     6.077532    -0.001256   147.109985
Mn      6.083586     2.034001    -0.031374   146.966728
Mn      6.057991     0.004943     2.008363   151.109139
Mn      1.990638    -0.007383     6.073125   147.420235
Mn     -0.030340     2.025332     6.063817   153.039861
Mn     -0.017341     6.072570     2.016166   147.443314
Mn      4.059993    -0.007114     0.000209   148.051900
Mn      2.005966     2.030950     4.045789   149.121201
Mn      6.059636     6.090846     4.026048   146.371542
Mn      6.034339     4.061919     6.066238   150.319576
Mn      2.003351     4.039945     2.025865   146.390368
Mn     -0.016316     4.049990    -0.011982   148.413455
Mn      4.042396     2.012159     2.009366   147.827858
Mn      4.019021     6.069134     6.066834   148.457259
Mn     -0.028932     0.002978     4.035286   146.479155
O       2.124973     2.105702     2.117196    96.657953
O       5.930962     5.987272     5.955112    96.693759
O       3.912905     8.000670     6.181373    96.921969
O       4.129937     0.088819     1.916146    96.624832
O       7.968090     6.176166     3.936052    97.418458
O       0.087479     1.934492     4.129470    96.872809
O       6.130059     3.974717     7.989207    96.671304
O       1.910157     4.131989     0.101740    97.008744
O       0.105763     4.108846     1.921474    97.149681
O       7.952204     3.984242     6.152673    96.328050
O       4.152867     1.919331     0.085002    97.029009
O       3.909257     6.176860     7.993457    96.500077
O       1.897458     0.084880     4.149300    96.762693
O       6.143188     8.022004     3.941515    97.200200
O       2.101733     6.163091     6.175045    96.628590
O       5.954402     1.930225     1.897740    96.521771
O       3.936555     3.943646     2.123920    96.970540
O       4.106386     4.145810     5.973259    96.441570
O       7.955564     2.128335     7.983190    96.674157
O       0.100624     5.981544     0.081802    97.234270
O       0.092943     0.061478     5.969140    96.594101
O       7.965430     8.031869     2.104884    97.216441
O       4.129224     5.976671     4.142489    96.895175
O       3.932380     2.120258     3.936128    96.417208
O       6.147488     2.130433     6.149481    96.755680
O       1.927244     5.982989     1.910366    97.497590
O       2.099892     3.970046     3.936005    96.304938
O       5.957442     4.156926     4.137659    96.029136
O       5.981198     0.099780     0.080148    95.942293
O       2.076935     8.026573     7.992409    96.712046
O       6.160324     6.177890     2.102002    97.103597
O       1.914611     1.935653     5.957756    96.918776
  
Same information as above printed with atom number.
   1 Li     1.006621     1.012909     1.009791     9.863282
   2 Li     7.039053     7.090352     7.066230     9.819318
   3 Li     5.028518     1.010333     5.052761     9.871999
   4 Li     3.012950     7.090721     3.044365     9.869500
   5 Li     0.978330     5.073034     5.073397     9.827333
   6 Li     7.062850     3.033271     3.008638     9.820713
   7 Li     5.041404     5.057669     1.004933     9.880409
   8 Li     3.000113     3.043418     7.091999     9.831270
   9 Mn     4.035883     4.050299     4.057252   148.805531
  10 Mn     2.019158     6.077532    -0.001256   147.109985
  11 Mn     6.083586     2.034001    -0.031374   146.966728
  12 Mn     6.057991     0.004943     2.008363   151.109139
  13 Mn     1.990638    -0.007383     6.073125   147.420235
  14 Mn    -0.030340     2.025332     6.063817   153.039861
  15 Mn    -0.017341     6.072570     2.016166   147.443314
  16 Mn     4.059993    -0.007114     0.000209   148.051900
  17 Mn     2.005966     2.030950     4.045789   149.121201
  18 Mn     6.059636     6.090846     4.026048   146.371542
  19 Mn     6.034339     4.061919     6.066238   150.319576
  20 Mn     2.003351     4.039945     2.025865   146.390368
  21 Mn    -0.016316     4.049990    -0.011982   148.413455
  22 Mn     4.042396     2.012159     2.009366   147.827858
  23 Mn     4.019021     6.069134     6.066834   148.457259
  24 Mn    -0.028932     0.002978     4.035286   146.479155
  25 O      2.124973     2.105702     2.117196    96.657953
  26 O      5.930962     5.987272     5.955112    96.693759
  27 O      3.912905     8.000670     6.181373    96.921969
  28 O      4.129937     0.088819     1.916146    96.624832
  29 O      7.968090     6.176166     3.936052    97.418458
  30 O      0.087479     1.934492     4.129470    96.872809
  31 O      6.130059     3.974717     7.989207    96.671304
  32 O      1.910157     4.131989     0.101740    97.008744
  33 O      0.105763     4.108846     1.921474    97.149681
  34 O      7.952204     3.984242     6.152673    96.328050
  35 O      4.152867     1.919331     0.085002    97.029009
  36 O      3.909257     6.176860     7.993457    96.500077
  37 O      1.897458     0.084880     4.149300    96.762693
  38 O      6.143188     8.022004     3.941515    97.200200
  39 O      2.101733     6.163091     6.175045    96.628590
  40 O      5.954402     1.930225     1.897740    96.521771
  41 O      3.936555     3.943646     2.123920    96.970540
  42 O      4.106386     4.145810     5.973259    96.441570
  43 O      7.955564     2.128335     7.983190    96.674157
  44 O      0.100624     5.981544     0.081802    97.234270
  45 O      0.092943     0.061478     5.969140    96.594101
  46 O      7.965430     8.031869     2.104884    97.216441
  47 O      4.129224     5.976671     4.142489    96.895175
  48 O      3.932380     2.120258     3.936128    96.417208
  49 O      6.147488     2.130433     6.149481    96.755680
  50 O      1.927244     5.982989     1.910366    97.497590
  51 O      2.099892     3.970046     3.936005    96.304938
  52 O      5.957442     4.156926     4.137659    96.029136
  53 O      5.981198     0.099780     0.080148    95.942293
  54 O      2.076935     8.026573     7.992409    96.712046
  55 O      6.160324     6.177890     2.102002    97.103597
  56 O      1.914611     1.935653     5.957756    96.918776
