   56
jmolscript: load "" {1 1 1} spacegroup "x,y,z" unitcell [{   8.100270 -0.010842 -0.036431 }, {  -0.010854  8.104335  0.009788 }, {  -0.036446  0.009777  8.104974 }]
Li   1.006621   1.012909   1.009791  -0.000048
Li   7.039053   7.090352   7.066230   0.000013
Li   5.028518   1.010333   5.052761  -0.000131
Li   3.012950   7.090721   3.044365   0.000004
Li   0.978330   5.073034   5.073397  -0.000277
Li   7.062850   3.033271   3.008638  -0.000053
Li   5.041404   5.057669   1.004933   0.000014
Li   3.000113   3.043418   7.091999  -0.000064
Mn   4.035883   4.050299   4.057252   2.488620
Mn   2.019158   6.077532  -0.001256  -2.754419
Mn   6.083586   2.034001  -0.031374   2.680070
Mn   6.057991   0.004943   2.008363  -2.395639
Mn   1.990638  -0.007383   6.073125   2.562889
Mn  -0.030340   2.025332   6.063817   2.458173
Mn  -0.017341   6.072570   2.016166   3.256025
Mn   4.059993  -0.007114   0.000209  -2.581342
Mn   2.005966   2.030950   4.045789   2.497196
Mn   6.059636   6.090846   4.026048  -2.817217
Mn   6.034339   4.061919   6.066238   2.426151
Mn   2.003351   4.039945   2.025865  -2.656172
Mn  -0.016316   4.049990  -0.011982   2.493217
Mn   4.042396   2.012159   2.009366  -2.571504
Mn   4.019021   6.069134   6.066834   2.522277
Mn  -0.028932   0.002978   4.035286  -2.735156
O    2.124973   2.105702   2.117196  -0.009387
O    5.930962   5.987272   5.955112   0.015378
O    3.912905   8.000670   6.181373   0.010907
O    4.129937   0.088819   1.916146  -0.034142
O    7.968090   6.176166   3.936052  -0.018133
O    0.087479   1.934492   4.129470   0.012932
O    6.130059   3.974717   7.989207   0.033669
O    1.910157   4.131989   0.101740  -0.014828
O    0.105763   4.108846   1.921474   0.012314
O    7.952204   3.984242   6.152673   0.028739
O    4.152867   1.919331   0.085002  -0.014282
O    3.909257   6.176860   7.993457  -0.009313
O    1.897458   0.084880   4.149300   0.009153
O    6.143188   8.022004   3.941515  -0.041666
O    2.101733   6.163091   6.175045   0.012744
O    5.954402   1.930225   1.897740  -0.011184
O    3.936555   3.943646   2.123920  -0.010411
O    4.106386   4.145810   5.973259   0.033605
O    7.955564   2.128335   7.983190   0.032594
O    0.100624   5.981544   0.081802   0.010847
O    0.092943   0.061478   5.969140   0.012252
O    7.965430   8.031869   2.104884  -0.012619
O    4.129224   5.976671   4.142489   0.013190
O    3.932380   2.120258   3.936128   0.006090
O    6.147488   2.130433   6.149481   0.033746
O    1.927244   5.982989   1.910366  -0.011548
O    2.099892   3.970046   3.936005   0.001578
O    5.957442   4.156926   4.137659   0.010609
O    5.981198   0.099780   0.080148  -0.013151
O    2.076935   8.026573   7.992409  -0.010141
O    6.160324   6.177890   2.102002  -0.015145
O    1.914611   1.935653   5.957756   0.031316
    
Collinear spin population analysis was performed
The total spin magnetic moment of the unit cell is    4.968341
    
 Chargemol version 3.5 September 26, 2017.
See ddec.sourceforge.net for latest version.
    
Computational parameters:
Spin_ref_fraction = 0.50
Number of radial integration shells = 100
Cutoff radius (pm) =  500
Spin convergence tolerance = 0.000050
Number of iterations to convergence =  7
    
    1 Li   1.006621   1.012909   1.009791  -0.000048
    2 Li   7.039053   7.090352   7.066230   0.000013
    3 Li   5.028518   1.010333   5.052761  -0.000131
    4 Li   3.012950   7.090721   3.044365   0.000004
    5 Li   0.978330   5.073034   5.073397  -0.000277
    6 Li   7.062850   3.033271   3.008638  -0.000053
    7 Li   5.041404   5.057669   1.004933   0.000014
    8 Li   3.000113   3.043418   7.091999  -0.000064
    9 Mn   4.035883   4.050299   4.057252   2.488620
   10 Mn   2.019158   6.077532  -0.001256  -2.754419
   11 Mn   6.083586   2.034001  -0.031374   2.680070
   12 Mn   6.057991   0.004943   2.008363  -2.395639
   13 Mn   1.990638  -0.007383   6.073125   2.562889
   14 Mn  -0.030340   2.025332   6.063817   2.458173
   15 Mn  -0.017341   6.072570   2.016166   3.256025
   16 Mn   4.059993  -0.007114   0.000209  -2.581342
   17 Mn   2.005966   2.030950   4.045789   2.497196
   18 Mn   6.059636   6.090846   4.026048  -2.817217
   19 Mn   6.034339   4.061919   6.066238   2.426151
   20 Mn   2.003351   4.039945   2.025865  -2.656172
   21 Mn  -0.016316   4.049990  -0.011982   2.493217
   22 Mn   4.042396   2.012159   2.009366  -2.571504
   23 Mn   4.019021   6.069134   6.066834   2.522277
   24 Mn  -0.028932   0.002978   4.035286  -2.735156
   25 O    2.124973   2.105702   2.117196  -0.009387
   26 O    5.930962   5.987272   5.955112   0.015378
   27 O    3.912905   8.000670   6.181373   0.010907
   28 O    4.129937   0.088819   1.916146  -0.034142
   29 O    7.968090   6.176166   3.936052  -0.018133
   30 O    0.087479   1.934492   4.129470   0.012932
   31 O    6.130059   3.974717   7.989207   0.033669
   32 O    1.910157   4.131989   0.101740  -0.014828
   33 O    0.105763   4.108846   1.921474   0.012314
   34 O    7.952204   3.984242   6.152673   0.028739
   35 O    4.152867   1.919331   0.085002  -0.014282
   36 O    3.909257   6.176860   7.993457  -0.009313
   37 O    1.897458   0.084880   4.149300   0.009153
   38 O    6.143188   8.022004   3.941515  -0.041666
   39 O    2.101733   6.163091   6.175045   0.012744
   40 O    5.954402   1.930225   1.897740  -0.011184
   41 O    3.936555   3.943646   2.123920  -0.010411
   42 O    4.106386   4.145810   5.973259   0.033605
   43 O    7.955564   2.128335   7.983190   0.032594
   44 O    0.100624   5.981544   0.081802   0.010847
   45 O    0.092943   0.061478   5.969140   0.012252
   46 O    7.965430   8.031869   2.104884  -0.012619
   47 O    4.129224   5.976671   4.142489   0.013190
   48 O    3.932380   2.120258   3.936128   0.006090
   49 O    6.147488   2.130433   6.149481   0.033746
   50 O    1.927244   5.982989   1.910366  -0.011548
   51 O    2.099892   3.970046   3.936005   0.001578
   52 O    5.957442   4.156926   4.137659   0.010609
   53 O    5.981198   0.099780   0.080148  -0.013151
   54 O    2.076935   8.026573   7.992409  -0.010141
   55 O    6.160324   6.177890   2.102002  -0.015145
   56 O    1.914611   1.935653   5.957756   0.031316
 2017/10/01  14:44:48
